geometry optimzed in LAMMPS
_audit_creation_date              2020-11-30 
_audit_creation_method            'lammps2cif' 
_symmetry_space_group_name_H-M    'P1' 
_symmetry_Int_Tables_number       1 
_symmetry_cell_setting            triclinic 
loop_ 
_symmetry_equiv_pos_as_xyz 
  x,y,z 
_cell_length_a                    47.25172306 
_cell_length_b                    46.80573080540767 
_cell_length_c                    47.205337963723224 
_cell_angle_alpha                 90.22543005391286 
_cell_angle_beta                  90.48535757881292 
_cell_angle_gamma                 89.74779101927297 
loop_ 
_atom_site_label 
_atom_site_type_symbol 
_atom_site_fract_x 
_atom_site_fract_y 
_atom_site_fract_z 
_atom_site_charge 
O1          O  0.47461330  0.03368956  0.21263156    -0.88500
C2          C  0.45934581  0.01690766  0.29601682     0.87500
Mg3        Mg  0.47694244  0.49740462  0.18198465     1.58100
O4          O  0.02959897  0.03694555  0.28141601    -0.88200
O5          O  0.49896203  0.06944529  0.23008975    -0.75600
C6          C  0.06776292  0.40509110  0.23798955     0.92600
O7          O  0.43836130  0.48385339  0.23977587    -0.75400
O8          O  0.04642225  0.40627751  0.22145517    -0.82900
Mg9        Mg  0.43778356  0.03185488  0.23980493     1.58000
C10         C  0.09588091  0.98866021  0.31798773     0.92500
O11         O  0.43121801  0.08111088  0.24191463    -0.81100
H12         H  0.05718480  0.06510226  0.26610114    -0.06500
C13         C  0.01862915  0.45244610  0.28796523     0.87400
O14         O  0.02586360  0.49834535  0.18258722    -0.75700
O15         O  0.46600390  0.03186690  0.27567174    -0.88400
O16         O  0.07421629  0.00301038  0.32556851    -0.81200
C17         C  0.50653333  0.06312438  0.34857458     0.92600
C18         C  0.43695490  0.10047611  0.26017310     0.92500
Mg19       Mg  0.06849903  0.47500027  0.25508083     1.58000
O20         O  0.07457426  0.42589534  0.25418824    -0.81200
O21         O  0.06673845  0.02373042  0.25716814    -0.75400
O22         O  0.49186192  0.07040130  0.32701182    -0.81200
O23         O  0.40728643  0.03093851  0.20217788    -0.82900
O24         O  0.01152415  0.43235252  0.17084923    -0.81300
C25         C  0.05142491  0.04291943  0.26850781     0.86900
O26         O  0.03946816  0.47363257  0.21960990    -0.88400
O27         O  0.03268022  0.47405290  0.28315117    -0.88500
O28         O  0.00800659  0.43756832  0.26802861    -0.75600
Mg29       Mg  0.49481521  0.06693958  0.27871889     1.58000
O30         O  0.02310176  0.04159788  0.34815027    -0.82900
H31         H  0.49414182  0.06192689  0.18791099    -0.06700
O32         O  0.47604696  0.46907494  0.21743234    -0.88200
H33         H  0.44803176  0.44192532  0.23374941    -0.06500
H34         H  0.06709913  0.49116425  0.19299584    -0.06700
C35         C  0.45399918  0.46389610  0.23026870     0.86900
C36         C  0.48915993  0.05527347  0.20919529     0.87500
C37         C  0.04517015  0.48760254  0.19824159     0.87500
H38         H  0.01469520  0.44646852  0.30967321    -0.06600
O39         O  0.47791502  0.00521912  0.31179636    -0.75700
Mg40       Mg  0.01031601  0.43840641  0.21936596     1.58000
H41         H  0.43719485  0.01317150  0.30011446    -0.06700
C42         C  0.40825899  0.51441367  0.18052702     0.92500
O43         O  0.47739843  0.45924200  0.15200294    -0.82900
C44         C  0.99366702  0.43758649  0.15117815     0.92600
O45         O  0.45800006  0.09842246  0.27700119    -0.82900
Mg46       Mg  0.02656055  0.00590065  0.31514368     1.58200
O47         O  0.42861978  0.49727507  0.17552553    -0.81200
O48         O  0.09915812  0.47633234  0.29256732    -0.82900
O49         O  0.99314216  0.27257060  0.04872786    -0.88500
C50         C  0.43099035  0.25983915  0.48858228     0.87500
Mg51       Mg  0.02930954  0.29833482  0.03956233     1.58100
O52         O  0.47762450  0.20185666  0.99886714    -0.88200
O53         O  0.48418235  0.22855424  0.06070663    -0.75600
C54         C  0.07842837  0.25411430  0.41568506     0.92600
O55         O  0.47011979  0.31708785  0.00195359    -0.75400
O56         O  0.07375245  0.27661255  0.43006403    -0.82900
Mg57       Mg  0.45238243  0.29175123  0.03948249     1.58000
C58         C  0.00791958  0.15600253  0.42853350     0.92500
O59         O  0.42860467  0.27073999  0.07682704    -0.81100
H60         H  0.99405547  0.17115606  0.02336946    -0.06500
C61         C  0.49446770  0.25048197  0.42995857     0.87400
O62         O  0.05605979  0.25879254  0.02853676    -0.75700
O63         O  0.44342491  0.25544318  0.01219302    -0.88400
O64         O  0.48481835  0.16430294  0.43967807    -0.81200
C65         C  0.40829186  0.17591223  0.48618731     0.92600
C66         C  0.41468335  0.24785932  0.08126688     0.92500
Mg67       Mg  0.03934814  0.21099858  0.45688350     1.58000
O68         O  0.06477271  0.23103032  0.41999699    -0.81200
O69         O  0.02071576  0.18639170  0.49429353    -0.75400
O70         O  0.41070770  0.19337228  0.00745101    -0.81200
O71         O  0.46295409  0.33031154  0.06833705    -0.82900
O72         O  0.07959563  0.30951761  0.48691016    -0.81300
C73         C  0.99723737  0.18599025  0.00620263     0.86900
O74         O  0.04721564  0.24774682  0.48329563    -0.88400
O75         O  0.49859204  0.22994736  0.44580051    -0.88500
O76         O  0.00695084  0.27408888  0.43389408    -0.75600
Mg77       Mg  0.44821081  0.21370925  0.03136403     1.58000
O78         O  0.42548114  0.17612221  0.46566999    -0.82900
H79         H  0.01289624  0.25346640  0.08115874    -0.06700
O80         O  0.01330456  0.30135650  0.49594284    -0.88200
H81         H  0.49687392  0.33249956  0.47194813    -0.06500
H82         H  0.07564849  0.22676260  0.00713188    -0.06700
C83         C  0.49380708  0.31762750  0.48910631     0.86900
C84         C  0.99720297  0.25191381  0.06443231     0.87500
C85         C  0.06061511  0.24422373  0.00627739     0.87500
H86         H  0.47902039  0.24864566  0.41302873    -0.06600
O87         O  0.43577488  0.24474113  0.46663233    -0.75700
Mg88       Mg  0.04253524  0.28912773  0.46347681     1.58000
H89         H  0.41628386  0.27753953  0.48705531    -0.06700
C90         C  0.48519628  0.34574926  0.06898908     0.92500
O91         O  0.06720921  0.32650709  0.03045605    -0.82900
C92         C  0.08384654  0.32682043  0.00946283     0.92600
O93         O  0.41764060  0.22579087  0.06576087    -0.82900
Mg94       Mg  0.46234085  0.20470074  0.45545858     1.58200
O95         O  0.00722070  0.33865637  0.05531275    -0.81200
O96         O  0.03026338  0.17121382  0.42973565    -0.82900
O97         O  0.27232679  0.19948436  0.25540225    -0.88500
C98         C  0.25455292  0.25745982  0.31728532     0.87500
Mg99       Mg  0.29875213  0.21066720  0.22071381     1.58100
O100        O  0.19969803  0.24718342  0.26697111    -0.88200
O101        O  0.22876069  0.18558524  0.26118250    -0.75600
C102        C  0.25583203  0.33570568  0.17255223     0.92600
O103        O  0.31339719  0.24806159  0.28120754    -0.75400
O104        O  0.27801096  0.32109567  0.17736551    -0.82900
Mg105      Mg  0.28885486  0.20915112  0.29718737     1.58000
C106        C  0.15572051  0.31935706  0.23701840     0.92500
O107        O  0.26809861  0.17097721  0.32005106    -0.81100
H108        H  0.17057897  0.22245386  0.24827234    -0.06500
C109        C  0.24768102  0.31777485  0.25466292     0.87400
O110        O  0.26018536  0.22122301  0.19255005    -0.75700
O111        O  0.25124373  0.23477618  0.30419451    -0.88400
O112        O  0.16200536  0.30561236  0.25943753    -0.81200
C113        C  0.17106338  0.25796298  0.33588066     0.92600
C114        C  0.24473862  0.16553012  0.33237465     0.92500
Mg115      Mg  0.21165390  0.29200553  0.20712061     1.58000
O116        O  0.23243021  0.33058132  0.18489199    -0.81200
O117        O  0.18680420  0.25310917  0.22287915    -0.75400
O118        O  0.18675458  0.23603330  0.33254436    -0.81200
O119        O  0.32923718  0.18214100  0.28854201    -0.82900
O120        O  0.31247213  0.26473859  0.17140652    -0.81300
C121        C  0.18495051  0.24024250  0.24639171     0.86900
O122        O  0.24886701  0.26605530  0.20015083    -0.88400
O123        O  0.22814142  0.30127461  0.24897905    -0.88500
O124        O  0.27176718  0.31499943  0.24336628    -0.75600
Mg125      Mg  0.21075489  0.21397234  0.29635572     1.58000
O126        O  0.17238601  0.27924366  0.31936810    -0.82900
H127        H  0.25611017  0.16620795  0.23427898    -0.06700
O128        O  0.30043624  0.25357015  0.23710597    -0.88200
H129        H  0.32949827  0.27854043  0.25554930    -0.06500
H130        H  0.22856147  0.24187764  0.17158516    -0.06700
C131        C  0.31520461  0.26070776  0.25759097     0.86900
C132        C  0.25286012  0.18283519  0.24989334     0.87500
C133        C  0.24533050  0.24328918  0.18724681     0.87500
H134        H  0.24450177  0.33427404  0.27042413    -0.06600
O135        O  0.23969063  0.27950418  0.31193107    -0.75700
Mg136      Mg  0.28932093  0.28668602  0.20794815     1.58000
H137        H  0.27111665  0.25881969  0.33316826    -0.06700
C138        C  0.34546255  0.18250340  0.26696422     0.92500
O139        O  0.32752036  0.22172600  0.18433218    -0.82900
C140        C  0.32826494  0.24297714  0.16771933     0.92600
O141        O  0.22214984  0.17947105  0.32730137    -0.82900
Mg142      Mg  0.20142936  0.29018711  0.28338923     1.58200
O143        O  0.33832677  0.19564272  0.24444930    -0.81200
O144        O  0.17203040  0.31934299  0.21558396    -0.82900
O145        O  0.29488785  0.47671877  0.02964297    -0.88500
C146        C  0.20852475  0.47741439  0.04145120     0.87500
Mg147      Mg  0.31598599  0.01734973  0.02273555     1.58100
O148        O  0.22944317  0.45073599  0.47467503    -0.88200
O149        O  0.28513638  0.43555962  0.00947977    -0.75600
C150        C  0.24298992  0.08321625  0.42300015     0.92600
O151        O  0.25550421  0.02892194  0.06193521    -0.75400
O152        O  0.25852509  0.08762144  0.44460218    -0.82900
Mg153      Mg  0.26664374  0.47697094  0.06513117     1.58000
C154        C  0.18584540  0.48330103  0.40239298     0.92500
O155        O  0.27651094  0.43022483  0.07512840    -0.81100
H156        H  0.25192446  0.42376166  0.45071248    -0.06500
C157        C  0.20293778  0.03564889  0.48024535     0.87400
O158        O  0.31475644  0.00886672  0.47422157    -0.75700
O159        O  0.23201467  0.46697683  0.03652521    -0.88400
O160        O  0.18166712  0.46823709  0.42448488    -0.81200
C161        C  0.16832092  0.41538597  0.00023248     0.92600
C162        C  0.25981035  0.40906145  0.07491014     0.92500
Mg163      Mg  0.23906367  0.01273389  0.43186356     1.58000
O164        O  0.23062677  0.05944182  0.41880872    -0.81200
O165        O  0.25158692  0.46476023  0.43678925    -0.75400
O166        O  0.18997562  0.41477312  0.01649213    -0.81200
O167        O  0.30259890  0.48766955  0.09487457    -0.82900
O168        O  0.31348706  0.07704039  0.47886637    -0.81300
C169        C  0.24434411  0.44534812  0.45394880     0.86900
O170        O  0.27342842  0.02424963  0.45964758    -0.88400
O171        O  0.21121934  0.01392056  0.46781523    -0.88500
O172        O  0.22001746  0.05474392  0.48882997    -0.75600
Mg173      Mg  0.23682668  0.42815138  0.01312882     1.58000
O174        O  0.16579382  0.43221068  0.47981819    -0.82900
H175        H  0.32487699  0.45174320  0.01282263    -0.06700
O176        O  0.27638664  0.03997026  0.02249479    -0.88200
H177        H  0.25695161  0.06925986  0.04644943    -0.06500
H178        H  0.30209846  0.00812794  0.43300951    -0.06700
C179        C  0.26308589  0.04714334  0.04376119     0.86900
C180        C  0.30265948  0.45467035  0.01735601     0.87500
C181        C  0.29688368  0.01377304  0.45458034     0.87500
H182        H  0.18065397  0.03800333  0.48475598    -0.06600
O183        O  0.19078105  0.48223000  0.02165030    -0.75700
Mg184      Mg  0.26761618  0.06271284  0.48395615     1.58000
H185        H  0.20307271  0.48286563  0.06300811    -0.06700
C186        C  0.32123209  0.01133124  0.09362060     0.92500
O187        O  0.33947898  0.05902361  0.01400793    -0.82900
C188        C  0.33544890  0.07753304  0.49458954     0.92600
O189        O  0.24283270  0.40468888  0.05440414    -0.82900
Mg190      Mg  0.18954285  0.47350485  0.47296123     1.58200
O191        O  0.32538151  0.02398693  0.07013957    -0.81200
O192        O  0.20278611  0.00090618  0.40282908    -0.82900
C193        C  0.25676028  0.35736464  0.14984845    -0.05600
C194        C  0.23199642  0.36328486  0.13429312    -0.33100
C195        C  0.23297013  0.37936011  0.10944036     0.36200
C196        C  0.25894980  0.39033631  0.09994417    -0.06000
C197        C  0.28351758  0.38564525  0.11618447    -0.33000
C198        C  0.28262896  0.36916567  0.14083557     0.36100
H199        H  0.21188773  0.35450734  0.14075937     0.16500
O200        O  0.20818303  0.38515700  0.09518794    -0.60400
H201        H  0.30353860  0.39453179  0.10958635     0.16500
O202        O  0.30727082  0.36435428  0.15566359    -0.60500
H203        H  0.30836597  0.38008335  0.16976048     0.43500
H204        H  0.20472079  0.36819245  0.08301521     0.43400
C205        C  0.24422679  0.14385340  0.35500153    -0.05600
C206        C  0.21986286  0.12734333  0.35936210    -0.33100
C207        C  0.21855988  0.10803371  0.38196356     0.36200
C208        C  0.24164781  0.10545697  0.40090022    -0.06000
C209        C  0.26545096  0.12284576  0.39711142    -0.33000
C210        C  0.26698126  0.14166098  0.37433162     0.36100
H211        H  0.20186829  0.12931407  0.34511333     0.16500
O212        O  0.19468489  0.09187659  0.38532390    -0.60400
H213        H  0.28344241  0.12130676  0.41143027     0.16500
O214        O  0.29030323  0.15882164  0.37195581    -0.60500
H215        H  0.30476786  0.14681777  0.36245751     0.43500
H216        H  0.18309398  0.10245677  0.39933274     0.43400
C217        C  0.35495347  0.10192678  0.49167739    -0.05600
C218        C  0.36525703  0.11530293  0.51625840    -0.33100
C219        C  0.38118444  0.14033984  0.51468243     0.36200
C220        C  0.38761881  0.15230066  0.48807875    -0.06000
C221        C  0.37740037  0.13882627  0.46340078    -0.33000
C222        C  0.36084343  0.11407931  0.46507487     0.36100
H223        H  0.36040527  0.10665551  0.53691314     0.16500
O224        O  0.39097170  0.15249661  0.53936153    -0.60400
H225        H  0.38241351  0.14739457  0.44276068     0.16500
O226        O  0.35069064  0.10184039  0.44059627    -0.60500
H227        H  0.36312830  0.08945661  0.93434093     0.43500
H228        H  0.40938182  0.14297854  0.54328845     0.43400
C229        C  0.10680648  0.34820240  0.00816150    -0.05600
C230        C  0.11304727  0.36000435  0.98163335    -0.33100
C231        C  0.13246497  0.38216703  0.97903851     0.36200
C232        C  0.14659378  0.39289712  0.00318558    -0.06000
C233        C  0.14091982  0.38074834  0.02978147    -0.33000
C234        C  0.12086648  0.35882467  0.03243569     0.36100
H235        H  0.10223029  0.35252139  0.96269200     0.16500
O236        O  0.13764443  0.39298284  0.95261945    -0.60400
H237        H  0.15177805  0.38851809  0.04857719     0.16500
O238        O  0.11517659  0.34805289  0.05874196    -0.60500
H239        H  0.12959765  0.33076878  0.56044712     0.43500
H240        H  0.15336105  0.38120210  0.94502213     0.43400
C241        C  0.10166751  0.25476121  0.39460157    -0.05600
C242        C  0.11281979  0.28123224  0.38616419    -0.33100
C243        C  0.13611035  0.28270927  0.36808198     0.36200
C244        C  0.14892285  0.25743875  0.35798881    -0.06000
C245        C  0.13826226  0.23099114  0.36693442    -0.33000
C246        C  0.11482075  0.22948127  0.38483139     0.36100
H247        H  0.10350796  0.30102376  0.39367062     0.16500
O248        O  0.14605552  0.30902109  0.36037017    -0.60400
H249        H  0.14762349  0.21123167  0.35939562     0.16500
O250        O  0.10560812  0.20313721  0.39329902    -0.60500
H251        H  0.09259663  0.19660182  0.37802406     0.43500
H252        H  0.16128167  0.31345980  0.37427389     0.43400
C253        C  0.39342561  0.24697056  0.10426899    -0.05600
C254        C  0.38439048  0.22040483  0.11462111    -0.33100
C255        C  0.36282055  0.21861378  0.13470163     0.36200
C256        C  0.34951663  0.24366070  0.14473320    -0.06000
C257        C  0.35839623  0.27021684  0.13422154    -0.33000
C258        C  0.38026407  0.27204859  0.11447854     0.36100
H259        H  0.39405181  0.20080373  0.10706312     0.16500
O260        O  0.35497771  0.19222028  0.14431598    -0.60400
H261        H  0.34875830  0.28984412  0.14175511     0.16500
O262        O  0.38776941  0.29843404  0.10454831    -0.60500
H263        H  0.40137509  0.30607495  0.11875959     0.43500
H264        H  0.33931079  0.18614038  0.13157534     0.43400
C265        C  0.37236390  0.16542285  0.26656282    -0.05600
C266        C  0.38096125  0.14982213  0.29056838    -0.33100
C267        C  0.40325103  0.12990596  0.28905696     0.36200
C268        C  0.41718434  0.12491301  0.26319086    -0.06000
C269        C  0.40972526  0.14136310  0.23960146    -0.33000
C270        C  0.38810133  0.16191194  0.24122843     0.36100
H271        H  0.36965463  0.15214465  0.31031492     0.16500
O272        O  0.41015990  0.11420183  0.31261789    -0.60400
H273        H  0.42036999  0.13789177  0.21962669     0.16500
O274        O  0.38165074  0.17726226  0.21731829    -0.60500
H275        H  0.39368044  0.19455143  0.21848838     0.43500
H276        H  0.39821059  0.09686223  0.31140959     0.43400
C277        C  0.12977990  0.33758779  0.23722118    -0.05600
C278        C  0.11753832  0.34712921  0.21169565    -0.33100
C279        C  0.09582542  0.36774124  0.21172660     0.36200
C280        C  0.08640005  0.37960418  0.23752515    -0.06000
C281        C  0.09766020  0.36919587  0.26299947    -0.33000
C282        C  0.11870444  0.34807190  0.26309063     0.36100
H283        H  0.12542952  0.33930065  0.19161764     0.16500
O284        O  0.08515840  0.37734588  0.18636086    -0.60400
H285        H  0.09064628  0.37807546  0.28299947     0.16500
O286        O  0.12975999  0.33955793  0.28868021    -0.60500
H287        H  0.11707952  0.32414119  0.29523922     0.43500
H288        H  0.09765708  0.39332345  0.18085071     0.43400
C289        C  0.11935038  0.98533116  0.33851633    -0.05600
C290        C  0.11466352  0.96953117  0.36318266    -0.33100
C291        C  0.13577689  0.96673339  0.38401184     0.36200
C292        C  0.16552723  0.48170336  0.37796105    -0.06000
C293        C  0.16900201  0.50000609  0.35451932    -0.33000
C294        C  0.14786328  0.50268088  0.33356024     0.36100
H295        H  0.09431351  0.95952255  0.36646472     0.16500
O296        O  0.12975414  0.95166945  0.40806198    -0.60400
H297        H  0.18772011  0.51315156  0.35287701     0.16500
O298        O  0.15142269  0.52158575  0.31177965    -0.60500
H299        H  0.16175630  0.51071414  0.29702903     0.43500
H300        H  0.13509040  0.93163395  0.40365463     0.43400
C301        C  0.38365866  0.51388606  0.16122513    -0.05600
C302        C  0.35719325  0.01162840  0.16635326    -0.33100
C303        C  0.33568056  0.01051450  0.14561193     0.36200
C304        C  0.34207228  0.01572898  0.11690445    -0.06000
C305        C  0.35678025  0.53503125  0.12237006    -0.33000
C306        C  0.37769426  0.53728338  0.14349801     0.36100
H307        H  0.35215673  0.00717549  0.18823846     0.16500
O308        O  0.30869139  0.00377209  0.15355403    -0.60400
H309        H  0.35314634  0.55295460  0.10832584     0.16500
O310        O  0.39317177  0.56193056  0.14574274    -0.60500
H311        H  0.40892787  0.55955018  0.13216629     0.43500
H312        H  0.29947589  0.02235274  0.15781409     0.43400
C313        C  0.99074781  0.41677761  0.12774213    -0.05600
C314        C  0.01463862  0.40788168  0.11279289    -0.33100
C315        C  0.01286562  0.38580612  0.09273180     0.36200
C316        C  0.48674042  0.37170964  0.08750718    -0.06000
C317        C  0.46272254  0.38109632  0.10234937    -0.33000
C318        C  0.46460682  0.40335887  0.12229696     0.36100
H319        H  0.03493760  0.41777909  0.11704579     0.16500
O320        O  0.03710709  0.37784680  0.07892084    -0.60400
H321        H  0.44255335  0.37059477  0.09917868     0.16500
O322        O  0.44104446  0.41085995  0.13744459    -0.60500
H323        H  0.44168198  0.39871692  0.15461811     0.43500
H324        H  0.04686494  0.36426037  0.09183449     0.43400
C325        C  0.00749021  0.12890032  0.41194873    -0.05600
C326        C  0.48169513  0.11980196  0.39986806    -0.33100
C327        C  0.48074431  0.09693039  0.38074632     0.36200
C328        C  0.50575612  0.08219927  0.37364198    -0.06000
C329        C  0.03116019  0.08963778  0.38744955    -0.33000
C330        C  0.03225044  0.11306538  0.40614675     0.36100
H331        H  0.46227735  0.13143073  0.40401294     0.16500
O332        O  0.45544778  0.09010869  0.36798999    -0.60400
H333        H  0.05063181  0.07857177  0.38223375     0.16500
O334        O  0.05764268  0.12047508  0.41831920    -0.60500
H335        H  0.06772886  0.13144237  0.40359904     0.42700
H336        H  0.44742511  0.07467872  0.37976237     0.43400
O337        O  0.47434926  0.03075327  0.71320058    -0.88500
C338        C  0.45927694  0.01775378  0.79736215     0.87500
Mg339      Mg  0.47623183  0.49581781  0.68266316     1.58100
O340        O  0.02982613  0.03515754  0.78103208    -0.88200
O341        O  0.49947728  0.06671519  0.72890429    -0.75600
C342        C  0.06732654  0.40450125  0.74050969     0.92600
O343        O  0.43746965  0.48218675  0.74066246    -0.75400
O344        O  0.04625488  0.40528817  0.72356728    -0.82900
Mg345      Mg  0.43766589  0.03069103  0.74051890     1.58000
C346        C  0.09501418  0.98615864  0.81888853     0.92500
O347        O  0.43212984  0.08000865  0.74099133    -0.81100
H348        H  0.05832347  0.06164512  0.76451219    -0.06500
C349        C  0.01708794  0.45250283  0.78950078     0.87400
O350        O  0.02511869  0.49702491  0.68380175    -0.75700
O351        O  0.46614464  0.03148918  0.77624852    -0.88400
O352        O  0.07438970  0.00238356  0.82569033    -0.81200
C353        C  0.50820741  0.06481480  0.84741382     0.92600
C354        C  0.43824049  0.09993284  0.75851831     0.92500
Mg355      Mg  0.06710678  0.47428853  0.75690185     1.58000
O356        O  0.07324764  0.42534842  0.75697439    -0.81200
O357        O  0.06652621  0.01960826  0.75745874    -0.75400
O358        O  0.49361106  0.07156845  0.82564341    -0.81200
O359        O  0.40703119  0.02927995  0.70294283    -0.82900
O360        O  0.01028717  0.42989410  0.67218182    -0.81300
C361        C  0.05181439  0.03981143  0.76786005     0.86900
O362        O  0.03851681  0.47238595  0.72093393    -0.88400
O363        O  0.03118478  0.47406012  0.78458576    -0.88500
O364        O  0.00698679  0.43716401  0.76961116    -0.75600
Mg365      Mg  0.49580053  0.06603214  0.77755627     1.58000
O366        O  0.02439180  0.04297668  0.84770367    -0.82900
H367        H  0.49388584  0.05768653  0.68711689    -0.06700
O368        O  0.47503851  0.46731493  0.71813069    -0.88200
H369        H  0.44720663  0.44024965  0.73487556    -0.06500
H370        H  0.06629356  0.48994562  0.69450113    -0.06700
C371        C  0.45307660  0.46220617  0.73114912     0.86900
C372        C  0.48912877  0.05194988  0.70871835     0.87500
C373        C  0.04433518  0.48632201  0.69958289     0.87500
H374        H  0.01278161  0.44687329  0.81122749    -0.06600
O375        O  0.47768615  0.00630507  0.81350974    -0.75700
Mg376      Mg  0.00955672  0.43696773  0.72082234     1.58000
H377        H  0.43707416  0.01492050  0.80187319    -0.06700
C378        C  0.40718291  0.51203561  0.68063268     0.92500
O379        O  0.47754853  0.45795863  0.65244638    -0.82900
C380        C  0.99334500  0.43593951  0.65187528     0.92600
O381        O  0.45954854  0.09825296  0.77507723    -0.82900
Mg382      Mg  0.02641853  0.00574028  0.81609243     1.58200
O383        O  0.42801822  0.49550056  0.67551010    -0.81200
O384        O  0.09718474  0.47574127  0.79497454    -0.82900
O385        O  0.99280231  0.27211678  0.54817959    -0.88500
C386        C  0.43086456  0.25993913  0.98953557     0.87500
Mg387      Mg  0.02906605  0.29768075  0.53880967     1.58100
O388        O  0.47724759  0.20156041  0.49839655    -0.88200
O389        O  0.48358333  0.22814516  0.56016806    -0.75600
C390        C  0.07884070  0.25540010  0.91629382     0.92600
O391        O  0.47003056  0.31681802  0.50138271    -0.75400
O392        O  0.07434973  0.27788971  0.93076307    -0.82900
Mg393      Mg  0.45213602  0.29147115  0.53884751     1.58000
C394        C  0.00851128  0.15757957  0.92806801     0.92500
O395        O  0.42823539  0.27039956  0.57620611    -0.81100
H396        H  0.99321104  0.17078678  0.52311242    -0.06500
C397        C  0.49464991  0.25159785  0.93071161     0.87400
O398        O  0.05563239  0.25796341  0.52787042    -0.75700
O399        O  0.44317590  0.25527053  0.51144249    -0.88400
O400        O  0.48528971  0.16528997  0.93941483    -0.81200
C401        C  0.40858627  0.17585145  0.98681796     0.92600
C402        C  0.41415514  0.24760342  0.58063274     0.92500
Mg403      Mg  0.03966399  0.21229073  0.95730221     1.58000
O404        O  0.06492878  0.23245290  0.92043074    -0.81200
O405        O  0.02129382  0.18731766  0.99460311    -0.75400
O406        O  0.41007167  0.19385685  0.50646721    -0.81200
O407        O  0.46283179  0.32999536  0.56770979    -0.82900
O408        O  0.07981782  0.31103678  0.98781248    -0.81300
C409        C  0.99662922  0.18547573  0.50587125     0.86900
O410        O  0.04763528  0.24885621  0.98391836    -0.88400
O411        O  0.49870579  0.23104601  0.94654855    -0.88500
O412        O  0.00737300  0.27510294  0.93454267    -0.75600
Mg413      Mg  0.44763025  0.21355508  0.53066753     1.58000
O414        O  0.42556285  0.17639997  0.96608776    -0.82900
H415        H  0.01241548  0.25290906  0.58064129    -0.06700
O416        O  0.01363083  0.30223269  0.99663570    -0.88200
H417        H  0.49678591  0.33305781  0.97251893    -0.06500
H418        H  0.07513092  0.22572382  0.50668986    -0.06700
C419        C  0.49391000  0.31820640  0.98973008     0.86900
C420        C  0.99673873  0.25143718  0.56389244     0.87500
C421        C  0.06015282  0.24322671  0.50570561     0.87500
H422        H  0.47916473  0.24984036  0.91380845    -0.06600
O423        O  0.43557635  0.24499638  0.96748105    -0.75700
Mg424      Mg  0.04294646  0.29027755  0.96417900     1.58000
H425        H  0.41590242  0.27744192  0.98827597    -0.06700
C426        C  0.48513394  0.34535584  0.56827474     0.92500
O427        O  0.06711021  0.32558156  0.52937250    -0.82900
C428        C  0.08378449  0.32545638  0.50839429     0.92600
O429        O  0.41690358  0.22561843  0.56497524    -0.82900
Mg430      Mg  0.46250172  0.20532741  0.95595536     1.58200
O431        O  0.00708873  0.33823327  0.55446737    -0.81200
O432        O  0.03068174  0.17296950  0.92974261    -0.82900
O433        O  0.27297911  0.19945721  0.75615600    -0.88500
C434        C  0.25663738  0.25735132  0.81849143     0.87500
Mg435      Mg  0.29898127  0.21057518  0.72108635     1.58100
O436        O  0.20092741  0.24765083  0.76894691    -0.88200
O437        O  0.22942135  0.18589285  0.76269728    -0.75600
C438        C  0.25618479  0.33555435  0.67363816     0.92600
O439        O  0.31508677  0.24730870  0.78167808    -0.75400
O440        O  0.27855543  0.32127166  0.67856897    -0.82900
Mg441      Mg  0.29036526  0.20854510  0.79772119     1.58000
C442        C  0.15708226  0.32024800  0.73943703     0.92500
O443        O  0.26945169  0.17041975  0.82056077    -0.81100
H444        H  0.17143761  0.22305014  0.75068586    -0.06500
C445        C  0.24902667  0.31806260  0.75611065     0.87400
O446        O  0.26022560  0.22147564  0.69346414    -0.75700
O447        O  0.25303089  0.23464025  0.80552288    -0.88400
O448        O  0.16363300  0.30669544  0.76190374    -0.81200
C449        C  0.17275698  0.25848107  0.83787312     0.92600
C450        C  0.24619290  0.16535649  0.83324024     0.92500
Mg451      Mg  0.21238485  0.29227374  0.70893104     1.58000
O452        O  0.23290212  0.33048069  0.68618590    -0.81200
O453        O  0.18753815  0.25353975  0.72502246    -0.75400
O454        O  0.18855983  0.23655268  0.83486244    -0.81200
O455        O  0.33043205  0.18100461  0.78805766    -0.82900
O456        O  0.31339354  0.26514218  0.67245574    -0.81300
C457        C  0.18588258  0.24075077  0.74858249     0.86900
O458        O  0.24947999  0.26632009  0.70156970    -0.88400
O459        O  0.22942867  0.30158988  0.75060785    -0.88500
O460        O  0.27301729  0.31518154  0.74466249    -0.75600
Mg461      Mg  0.21215291  0.21437955  0.79818722     1.58000
O462        O  0.17428308  0.27963607  0.82124746    -0.82900
H463        H  0.25613011  0.16634937  0.73526579    -0.06700
O464        O  0.30135174  0.25341699  0.73788054    -0.88200
H465        H  0.33102068  0.27788323  0.75602476    -0.06500
H466        H  0.22868555  0.24266944  0.67293397    -0.06700
C467        C  0.31657321  0.26019029  0.75815927     0.86900
C468        C  0.25328727  0.18298036  0.75095677     0.87500
C469        C  0.24560568  0.24374546  0.68845824     0.87500
H470        H  0.24599885  0.33459327  0.77187148    -0.06600
O471        O  0.24173196  0.27943086  0.81334696    -0.75700
Mg472      Mg  0.29015321  0.28684155  0.70906982     1.58000
H473        H  0.27344048  0.25868629  0.83412290    -0.06700
C474        C  0.34611684  0.18144680  0.76606184     0.92500
O475        O  0.32736992  0.22145408  0.68427168    -0.82900
C476        C  0.32856300  0.24305431  0.66813694     0.92600
O477        O  0.22379621  0.17978819  0.82873324    -0.82900
Mg478      Mg  0.20314588  0.29059530  0.78529919     1.58200
O479        O  0.33869174  0.19510488  0.74397191    -0.81200
O480        O  0.17297657  0.31981931  0.71770128    -0.82900
O481        O  0.29304184  0.47671841  0.53091741    -0.88500
C482        C  0.20690239  0.47573299  0.54148724     0.87500
Mg483      Mg  0.31668010  0.01711384  0.52234932     1.58100
O484        O  0.22913182  0.45141409  0.97447534    -0.88200
O485        O  0.28501267  0.43527892  0.51069419    -0.75600
C486        C  0.24274261  0.08333474  0.92378594     0.92600
O487        O  0.25599035  0.02788516  0.56111969    -0.75400
O488        O  0.25825490  0.08765826  0.94538389    -0.82900
Mg489      Mg  0.26454925  0.47608496  0.56597251     1.58000
C490        C  0.18523475  0.48542339  0.90302172     0.92500
O491        O  0.27499607  0.42947789  0.57585945    -0.81100
H492        H  0.25068434  0.42400741  0.95013957    -0.06500
C493        C  0.20211635  0.03653222  0.98140786     0.87400
O494        O  0.31381908  0.00888684  0.97470733    -0.75700
O495        O  0.23057486  0.46553703  0.53698976    -0.88400
O496        O  0.18104628  0.46921735  0.92433499    -0.81200
C497        C  0.16873666  0.41338898  0.49902267     0.92600
C498        C  0.25901968  0.40775359  0.57511756     0.92500
Mg499      Mg  0.23794727  0.01312896  0.93289592     1.58000
O500        O  0.22993675  0.05978791  0.91973966    -0.81200
O501        O  0.25106128  0.46505471  0.93636086    -0.75400
O502        O  0.19030698  0.41275987  0.51536320    -0.81200
O503        O  0.30038479  0.48670778  0.59577206    -0.82900
O504        O  0.31310592  0.07709370  0.97911330    -0.81300
C505        C  0.24363395  0.44574767  0.95354708     0.86900
O506        O  0.27240494  0.02436969  0.96060476    -0.88400
O507        O  0.20997835  0.01475603  0.96876627    -0.88500
O508        O  0.21951329  0.05539326  0.98988959    -0.75600
Mg509      Mg  0.23679032  0.42706759  0.51320201     1.58000
O510        O  0.16549005  0.43396629  0.98077095    -0.82900
H511        H  0.32421769  0.45249785  0.51521335    -0.06700
O512        O  0.27686014  0.03942128  0.52179626    -0.88200
H513        H  0.25690191  0.06830936  0.54579174    -0.06500
H514        H  0.30067315  0.00806136  0.93365211    -0.06700
C515        C  0.26335910  0.04629448  0.54303153     0.86900
C516        C  0.30179478  0.45485254  0.51901308     0.87500
C517        C  0.29574412  0.01379015  0.95527057     0.87500
H518        H  0.17991777  0.03913597  0.98619526    -0.06600
O519        O  0.18961585  0.48069673  0.52134404    -0.75700
Mg520      Mg  0.26715246  0.06303438  0.98468053     1.58000
H521        H  0.20093074  0.48094022  0.56295993    -0.06700
C522        C  0.32166453  0.01084882  0.59337218     0.92500
O523        O  0.33982391  0.05896515  0.51383633    -0.82900
C524        C  0.33511192  0.07761144  0.99476905     0.92600
O525        O  0.24248526  0.40309909  0.55430322    -0.82900
Mg526      Mg  0.18966533  0.47480670  0.97321568     1.58200
O527        O  0.32591416  0.02367873  0.56998239    -0.81200
O528        O  0.20177068  0.00141230  0.90383775    -0.82900
C529        C  0.25665159  0.35657745  0.65040886    -0.05600
C530        C  0.23220759  0.36030843  0.63371293    -0.33100
C531        C  0.23305167  0.37592726  0.60856775     0.36200
C532        C  0.25853124  0.38872320  0.59996743    -0.06000
C533        C  0.28276023  0.38584717  0.61715771    -0.33000
C534        C  0.28203304  0.36975887  0.64205876     0.36100
H535        H  0.21253162  0.35019668  0.63958252     0.16500
O536        O  0.20852572  0.37953734  0.59319658    -0.60400
H537        H  0.30238567  0.39600730  0.61120467     0.16500
O538        O  0.30633891  0.36680557  0.65788863    -0.60500
H539        H  0.30577624  0.38266364  0.67186876     0.43500
H540        H  0.20706347  0.36230553  0.58098985     0.43400
C541        C  0.24549853  0.14347268  0.85558608    -0.05600
C542        C  0.22083089  0.12741527  0.85986350    -0.33100
C543        C  0.21907809  0.10822300  0.88248399     0.36200
C544        C  0.24200979  0.10534672  0.90152804    -0.06000
C545        C  0.26623614  0.12213855  0.89771155    -0.33000
C546        C  0.26822439  0.14080789  0.87487129     0.36100
H547        H  0.20290375  0.12972412  0.84557894     0.16500
O548        O  0.19490912  0.09250264  0.88578483    -0.60400
H549        H  0.28416054  0.12026266  0.91207859     0.16500
O550        O  0.29193086  0.15741434  0.87242989    -0.60500
H551        H  0.30611946  0.14504065  0.86297558     0.43500
H552        H  0.18328506  0.10351011  0.89944136     0.43400
C553        C  0.35466089  0.10205281  0.99184896    -0.05600
C554        C  0.36570835  0.11479320  0.01644520    -0.33100
C555        C  0.38176947  0.13976560  0.01505199     0.36200
C556        C  0.38775558  0.15228226  0.98858164    -0.06000
C557        C  0.37673802  0.13950751  0.96387003    -0.33000
C558        C  0.35990996  0.11489212  0.96539525     0.36100
H559        H  0.36131506  0.10571466  0.03702325     0.16500
O560        O  0.39208826  0.15133674  0.03979019    -0.60400
H561        H  0.38127322  0.14856233  0.94332207     0.16500
O562        O  0.34882648  0.10350297  0.94091209    -0.60500
H563        H  0.36545300  0.08792552  0.43480161     0.43500
H564        H  0.41072211  0.14197613  0.04292315     0.43400
C565        C  0.10705060  0.34645026  0.50691214    -0.05600
C566        C  0.11351015  0.35797347  0.48030000    -0.33100
C567        C  0.13313671  0.37995755  0.47763281     0.36200
C568        C  0.14715465  0.39077757  0.50179848    -0.06000
C569        C  0.14140643  0.37874209  0.52841286    -0.33000
C570        C  0.12123664  0.35697126  0.53112857     0.36100
H571        H  0.10267811  0.35045830  0.46137882     0.16500
O572        O  0.13856194  0.39057219  0.45118213    -0.60400
H573        H  0.15225706  0.38653333  0.54720427     0.16500
O574        O  0.11551200  0.34626158  0.55744986    -0.60500
H575        H  0.12801716  0.33137243  0.06092675     0.43500
H576        H  0.15381139  0.37823196  0.44349855     0.43400
C577        C  0.10223719  0.25578943  0.89539399    -0.05600
C578        C  0.11266279  0.28214118  0.88586131    -0.33100
C579        C  0.13627882  0.28350467  0.86819656     0.36200
C580        C  0.15022368  0.25821178  0.85965936    -0.06000
C581        C  0.14017432  0.23189321  0.86963933    -0.33000
C582        C  0.11636561  0.23050170  0.88709366     0.36100
H583        H  0.10250937  0.30193076  0.89219687     0.16500
O584        O  0.14536349  0.30974662  0.85929044    -0.60400
H585        H  0.15032700  0.21210840  0.86328486     0.16500
O586        O  0.10780702  0.20433439  0.89671022    -0.60500
H587        H  0.09562403  0.19644578  0.88138289     0.43500
H588        H  0.16011120  0.31551991  0.87322261     0.43400
C589        C  0.39304740  0.24669807  0.60385881    -0.05600
C590        C  0.38272075  0.22016085  0.61309365    -0.33100
C591        C  0.36143648  0.21852915  0.63351991     0.36200
C592        C  0.34965001  0.24371434  0.64498156    -0.06000
C593        C  0.35984514  0.27023716  0.63566540    -0.33000
C594        C  0.38147141  0.27188865  0.61563024     0.36100
H595        H  0.39115186  0.20045442  0.60441837     0.16500
O596        O  0.35236790  0.19215752  0.64205353    -0.60400
H597        H  0.35144360  0.28994129  0.64438896     0.16500
O598        O  0.39037647  0.29831773  0.60708327    -0.60500
H599        H  0.40514403  0.30397276  0.62104996     0.43500
H600        H  0.33558588  0.18795396  0.63000830     0.43400
C601        C  0.37280227  0.16411178  0.76458386    -0.05600
C602        C  0.38505390  0.15243559  0.78921126    -0.33100
C603        C  0.40785081  0.13306733  0.78755477     0.36200
C604        C  0.41851316  0.12456201  0.76095245    -0.06000
C605        C  0.40718472  0.13704897  0.73646553    -0.33000
C606        C  0.38504816  0.15700202  0.73804837     0.36100
H607        H  0.37640311  0.15761142  0.80978797     0.16500
O608        O  0.41843915  0.12127742  0.81202130    -0.60400
H609        H  0.41505956  0.13073859  0.71585826     0.16500
O610        O  0.37438535  0.16784740  0.71317582    -0.60500
H611        H  0.38627895  0.18470783  0.70900576     0.43500
H612        H  0.40680500  0.10403952  0.81532181     0.43400
C613        C  0.13128644  0.33865515  0.73989184    -0.05600
C614        C  0.11759864  0.34659751  0.71455661    -0.33100
C615        C  0.09541415  0.36671525  0.71462968     0.36200
C616        C  0.08680710  0.37957821  0.74027790    -0.06000
C617        C  0.09987429  0.37101030  0.76561989    -0.33000
C618        C  0.12158089  0.35058104  0.76568668     0.36100
H619        H  0.12461530  0.33779272  0.69453978     0.16500
O620        O  0.08342377  0.37482926  0.68933122    -0.60400
H621        H  0.09377782  0.38084053  0.78549493     0.16500
O622        O  0.13461163  0.34419321  0.79097806    -0.60500
H623        H  0.12280481  0.32909237  0.79955098     0.43500
H624        H  0.09526923  0.39079611  0.68251852     0.43400
C625        C  0.11894197  0.98329011  0.83887847    -0.05600
C626        C  0.11704569  0.96361161  0.86108969    -0.33100
C627        C  0.13820241  0.96195597  0.88203876     0.36200
C628        C  0.16457168  0.48615611  0.87922511    -0.06000
C629        C  0.15346066  0.51285498  0.87115663    -0.33000
C630        C  0.13221892  0.51505631  0.85042058     0.36100
H631        H  0.09868527  0.94991410  0.86257181     0.16500
O632        O  0.13494590  0.94294941  0.90379268    -0.60400
H633        H  0.16062997  0.53214018  0.88173752     0.16500
O634        O  0.12119685  0.54145467  0.84411046    -0.60500
H635        H  0.13234823  0.54831916  0.82781150     0.43500
H636        H  0.14492549  0.92535593  0.89757930     0.43400
C637        C  0.38244710  0.51095521  0.66129622    -0.05600
C638        C  0.35678742  0.00974977  0.66651822    -0.33100
C639        C  0.33552393  0.00903311  0.64550207     0.36200
C640        C  0.34213049  0.01530309  0.61703591    -0.06000
C641        C  0.34933446  0.53443083  0.62892087    -0.33000
C642        C  0.37050035  0.53612747  0.64990983     0.36100
H643        H  0.35160436  0.00435806  0.68815499     0.16500
O644        O  0.30858129  0.00153045  0.65291953    -0.60400
H645        H  0.34098367  0.55392418  0.61971856     0.16500
O646        O  0.38032583  0.56244356  0.65812296    -0.60500
H647        H  0.39615299  0.56662165  0.64512511     0.43500
H648        H  0.29884790  0.01983072  0.65722170     0.43400
C649        C  0.99079606  0.41566116  0.62786518    -0.05600
C650        C  0.01512319  0.40522870  0.61464102    -0.33100
C651        C  0.01338750  0.38354859  0.59414896     0.36200
C652        C  0.48685898  0.37122040  0.58690156    -0.06000
C653        C  0.46240913  0.38230273  0.59978043    -0.33000
C654        C  0.46422612  0.40438975  0.61995020     0.36100
H655        H  0.03568999  0.41361200  0.62057378     0.16500
O656        O  0.03801683  0.37410186  0.58201471    -0.60400
H657        H  0.44185725  0.37333038  0.59480574     0.16500
O658        O  0.43999476  0.41384405  0.63284021    -0.60500
H659        H  0.43811388  0.40187491  0.65001053     0.43500
H660        H  0.04576102  0.35957366  0.59525195     0.43400
C661        C  0.00853600  0.13095785  0.91073703    -0.05600
C662        C  0.48293381  0.12182817  0.89829873    -0.33100
C663        C  0.48231883  0.09917082  0.87891934     0.36200
C664        C  0.50746306  0.08458661  0.87196232    -0.06000
C665        C  0.03280248  0.09238008  0.88570442    -0.33000
C666        C  0.03356376  0.11566341  0.90460699     0.36100
H667        H  0.46337872  0.13319876  0.90249396     0.16500
O668        O  0.45715592  0.09226328  0.86594737    -0.60400
H669        H  0.05239950  0.08156137  0.88045532     0.16500
O670        O  0.05887948  0.12339003  0.91674821    -0.60500
H671        H  0.06848585  0.13511735  0.90228003     0.42700
H672        H  0.44926967  0.07653098  0.87741744     0.43400
O673        O  0.47523793  0.53329320  0.21099094    -0.88500
C674        C  0.46186953  0.51884901  0.29496920     0.87500
Mg675      Mg  0.47765072  0.99939061  0.18204093     1.58100
O676        O  0.03182560  0.53841122  0.27852653    -0.88200
O677        O  0.50011641  0.56942315  0.22686236    -0.75600
C678        C  0.06686335  0.90506653  0.23797895     0.92600
O679        O  0.43770804  0.98262663  0.23927735    -0.75400
O680        O  0.04617104  0.90651496  0.22059555    -0.82900
Mg681      Mg  0.43919374  0.53322567  0.23859013     1.58000
C682        C  0.09895919  0.49064627  0.31553210     0.92500
O683        O  0.43326798  0.58263096  0.23924126    -0.81100
H684        H  0.05943544  0.56592253  0.26213983    -0.06500
C685        C  0.01616398  0.95078988  0.28743983     0.87400
O686        O  0.02644226  0.99986661  0.18391589    -0.75700
O687        O  0.46790219  0.53357960  0.27424074    -0.88400
O688        O  0.07787527  0.50607122  0.32283864    -0.81200
C689        C  0.50978578  0.56653121  0.34554139     0.92600
C690        C  0.43858151  0.60188145  0.25774002     0.92500
Mg691      Mg  0.06679869  0.97457812  0.25652542     1.58000
O692        O  0.07300873  0.92561557  0.25475016    -0.81200
O693        O  0.06875283  0.52421910  0.25450696    -0.75400
O694        O  0.49493071  0.57334015  0.32396270    -0.81200
O695        O  0.40908489  0.53239305  0.20075992    -0.82900
O696        O  0.01147685  0.93390041  0.16939600    -0.81300
C697        C  0.05356687  0.54386502  0.26525960     0.86900
O698        O  0.03875488  0.97384321  0.22036277    -0.88400
O699        O  0.03024691  0.97261151  0.28375341    -0.88500
O700        O  0.00627985  0.93645497  0.26673852    -0.75600
Mg701      Mg  0.49691415  0.56852124  0.27575062     1.58000
O702        O  0.02659332  0.54518829  0.34530617    -0.82900
H703        H  0.49472475  0.56039974  0.18501160    -0.06700
O704        O  0.47538793  0.96915068  0.21613180    -0.88200
H705        H  0.44753142  0.94112482  0.23118265    -0.06500
H706        H  0.06731100  0.99177252  0.19503390    -0.06700
C707        C  0.45334181  0.96327860  0.22866619     0.86900
C708        C  0.48997852  0.55455849  0.20658816     0.87500
C709        C  0.04520531  0.98834954  0.19961411     0.87500
H710        H  0.01159228  0.94410723  0.30880800    -0.06600
O711        O  0.48089805  0.50767042  0.31061280    -0.75700
Mg712      Mg  0.00975534  0.93858559  0.21818393     1.58000
H713        H  0.43986121  0.51490775  0.29958339    -0.06700
C714        C  0.40851165  0.01605499  0.17962615     0.92500
O715        O  0.47853963  0.96243238  0.15065467    -0.82900
C716        C  0.99400825  0.94018977  0.14962400     0.92600
O717        O  0.45980391  0.59998923  0.27437540    -0.82900
Mg718      Mg  0.02967216  0.50851384  0.31330584     1.58200
O719        O  0.43026535  0.00138625  0.17321460    -0.81200
O720        O  0.09692770  0.97541451  0.29443941    -0.82900
O721        O  0.99177593  0.77259855  0.05100060    -0.88500
C722        C  0.43030629  0.75770844  0.49122090     0.87500
Mg723      Mg  0.02804636  0.79816470  0.04234471     1.58100
O724        O  0.47717481  0.70191069  0.00040417    -0.88200
O725        O  0.48291362  0.72841786  0.06253115    -0.75600
C726        C  0.07779102  0.75441024  0.41770802     0.92600
O727        O  0.46950748  0.81715953  0.00373507    -0.75400
O728        O  0.07333858  0.77688254  0.43220710    -0.82900
Mg729      Mg  0.45118611  0.79191790  0.04096938     1.58000
C730        C  0.00878304  0.65609127  0.42977472     0.92500
O731        O  0.42705210  0.77068171  0.07784327    -0.81100
H732        H  0.99293616  0.67058936  0.02457056    -0.06500
C733        C  0.49399928  0.74949853  0.43259916     0.87400
O734        O  0.05488484  0.75854700  0.03161490    -0.75700
O735        O  0.44283195  0.75546545  0.01366095    -0.88400
O736        O  0.48561197  0.66304043  0.44169261    -0.81200
C737        C  0.40923680  0.67363247  0.48989428     0.92600
C738        C  0.41314926  0.74775708  0.08214858     0.92500
Mg739      Mg  0.03950521  0.71102510  0.45926987     1.58000
O740        O  0.06415717  0.73135780  0.42212748    -0.81200
O741        O  0.02158718  0.68588271  0.49677922    -0.75400
O742        O  0.41029722  0.69338759  0.00824976    -0.81200
O743        O  0.46094199  0.83130710  0.06954893    -0.82900
O744        O  0.07851955  0.81124766  0.48882865    -0.81300
C745        C  0.99649033  0.68567096  0.00769412     0.86900
O746        O  0.04724723  0.74786284  0.48577063    -0.88400
O747        O  0.49832652  0.72913204  0.44858415    -0.88500
O748        O  0.00651890  0.77314605  0.43618667    -0.75600
Mg749      Mg  0.44739771  0.71365122  0.03268538     1.58000
O750        O  0.42620978  0.67375619  0.46916147    -0.82900
H751        H  0.01111923  0.75338471  0.08361189    -0.06700
O752        O  0.01254475  0.80093953  0.49786203    -0.88200
H753        H  0.49555981  0.83136275  0.47335104    -0.06500
H754        H  0.07457674  0.72638775  0.01048010    -0.06700
C755        C  0.49273594  0.81669417  0.49072451     0.86900
C756        C  0.99568889  0.75185692  0.06664021     0.87500
C757        C  0.05966750  0.74394517  0.00941178     0.87500
H758        H  0.47848277  0.74743981  0.41575861    -0.06600
O759        O  0.43515055  0.74243860  0.46942610    -0.75700
Mg760      Mg  0.04196443  0.78913867  0.46559015     1.58000
H761        H  0.41510765  0.77498134  0.48970382    -0.06700
C762        C  0.48340508  0.84646938  0.07007595     0.92500
O763        O  0.06583825  0.82654423  0.03385726    -0.82900
C764        C  0.08291880  0.82688064  0.01324719     0.92600
O765        O  0.41634999  0.72566696  0.06670795    -0.82900
Mg766      Mg  0.46256023  0.70300875  0.45834095     1.58200
O767        O  0.00569803  0.83826139  0.05753470    -0.81200
O768        O  0.03071211  0.67180536  0.43157506    -0.82900
O769        O  0.27221248  0.70035855  0.25729750    -0.88500
C770        C  0.25494874  0.75824102  0.31945288     0.87500
Mg771      Mg  0.29814802  0.71145586  0.22222175     1.58100
O772        O  0.19958349  0.74762231  0.26962980    -0.88200
O773        O  0.22887492  0.68616775  0.26391792    -0.75600
C774        C  0.25485586  0.83693878  0.17514113     0.92600
O775        O  0.31382613  0.74863334  0.28264709    -0.75400
O776        O  0.27727663  0.82255347  0.17960290    -0.82900
Mg777      Mg  0.28948789  0.70967449  0.29882150     1.58000
C778        C  0.15516492  0.81960265  0.23927097     0.92500
O779        O  0.26895030  0.67138356  0.32172447    -0.81100
H780        H  0.17083840  0.72250391  0.25086711    -0.06500
C781        C  0.24727119  0.81842023  0.25696069     0.87400
O782        O  0.25942942  0.72204183  0.19447551    -0.75700
O783        O  0.25178228  0.73546374  0.30647621    -0.88400
O784        O  0.16156579  0.80630802  0.26194547    -0.81200
C785        C  0.17085640  0.75838452  0.33834496     0.92600
C786        C  0.24589896  0.66613260  0.33469863     0.92500
Mg787      Mg  0.21123228  0.79241638  0.20951256     1.58000
O788        O  0.23156106  0.83119520  0.18739041    -0.81200
O789        O  0.18683681  0.75325767  0.22543887    -0.75400
O790        O  0.18706096  0.73672418  0.33555264    -0.81200
O791        O  0.32991885  0.68231530  0.28929052    -0.82900
O792        O  0.31206362  0.76587254  0.17330985    -0.81300
C793        C  0.18501283  0.74045491  0.24899699     0.86900
O794        O  0.24852165  0.76691335  0.20226666    -0.88400
O795        O  0.22776705  0.80185433  0.25133648    -0.88500
O796        O  0.27131297  0.81578485  0.24553081    -0.75600
Mg797      Mg  0.21117126  0.71461312  0.29920158     1.58000
O798        O  0.17208880  0.77950260  0.32162807    -0.82900
H799        H  0.25584030  0.66693612  0.23652837    -0.06700
O800        O  0.30027074  0.75440157  0.23873380    -0.88200
H801        H  0.32958995  0.77924780  0.25693708    -0.06500
H802        H  0.22798843  0.74304858  0.17361784    -0.06700
C803        C  0.31531494  0.76141098  0.25906994     0.86900
C804        C  0.25276270  0.68357973  0.25215964     0.87500
C805        C  0.24481126  0.74425824  0.18923798     0.87500
H806        H  0.24410621  0.83485801  0.27278829    -0.06600
O807        O  0.23968593  0.78006353  0.31423071    -0.75700
Mg808      Mg  0.28890218  0.78773988  0.20989463     1.58000
H809        H  0.27161826  0.75985412  0.33520073    -0.06700
C810        C  0.34560339  0.68275599  0.26727866     0.92500
O811        O  0.32625990  0.72227412  0.18534209    -0.82900
C812        C  0.32719475  0.74373733  0.16902091     0.92600
O813        O  0.22330774  0.68032134  0.33023525    -0.82900
Mg814      Mg  0.20115983  0.79070023  0.28582107     1.58200
O815        O  0.33801212  0.69630926  0.24517499    -0.81200
O816        O  0.17146609  0.81930353  0.21785744    -0.82900
O817        O  0.29258215  0.97901441  0.03134472    -0.88500
C818        C  0.20636966  0.98071344  0.04462382     0.87500
Mg819      Mg  0.31821951  0.51557034  0.02345398     1.58100
O820        O  0.22769017  0.95210628  0.47680533    -0.88200
O821        O  0.28239517  0.93735505  0.01260105    -0.75600
C822        C  0.24477052  0.58317496  0.42482182     0.92600
O823        O  0.25680586  0.52480630  0.06161520    -0.75400
O824        O  0.25988415  0.58734779  0.44676760    -0.82900
Mg825      Mg  0.26478042  0.98124469  0.06754176     1.58000
C826        C  0.18271850  0.98305559  0.40482275     0.92500
O827        O  0.27338565  0.93478783  0.08028397    -0.81100
H828        H  0.24932803  0.92430252  0.45298431    -0.06500
C829        C  0.20308500  0.53386292  0.47921471     0.87400
O830        O  0.31570107  0.50906961  0.47702631    -0.75700
O831        O  0.22976324  0.97004110  0.03973943    -0.88400
O832        O  0.17877197  0.96898578  0.42758903    -0.81200
C833        C  0.16563531  0.91731577  0.00481554     0.92600
C834        C  0.25754529  0.91290746  0.07939357     0.92500
Mg835      Mg  0.24120543  0.51262059  0.43193975     1.58000
O836        O  0.23241106  0.55950471  0.42014076    -0.81200
O837        O  0.24898932  0.96490491  0.43797499    -0.75400
O838        O  0.18731102  0.91702040  0.02107959    -0.81200
O839        O  0.30129431  0.99345761  0.09667709    -0.82900
O840        O  0.31303054  0.57632041  0.48334132    -0.81300
C841        C  0.24201481  0.94603604  0.45584141     0.86900
O842        O  0.27451177  0.52371040  0.46129382    -0.88400
O843        O  0.21226733  0.51243316  0.46692024    -0.88500
O844        O  0.21948948  0.55311237  0.48875889    -0.75600
Mg845      Mg  0.23419031  0.93058088  0.01701308     1.58000
O846        O  0.16405462  0.93484450  0.48421822    -0.82900
H847        H  0.32229090  0.95319747  0.01529959    -0.06700
O848        O  0.27824370  0.53763459  0.02299966    -0.88200
H849        H  0.25792777  0.56573494  0.04763071    -0.06500
H850        H  0.30447651  0.50879952  0.43539951    -0.06700
C851        C  0.26441196  0.54381730  0.04423870     0.86900
C852        C  0.30011989  0.95648518  0.01983004     0.87500
C853        C  0.29837218  0.51387116  0.45686561     0.87500
H854        H  0.18057610  0.53583874  0.48269821    -0.06600
O855        O  0.18847580  0.98515850  0.02487710    -0.75700
Mg856      Mg  0.26724147  0.56159554  0.48614779     1.58000
H857        H  0.20114697  0.98672822  0.06609395    -0.06700
C858        C  0.32203757  0.50629262  0.09395005     0.92500
O859        O  0.34175035  0.55753534  0.01633969    -0.82900
C860        C  0.33468971  0.57676177  0.49945850     0.92600
O861        O  0.24104334  0.90806001  0.05858086    -0.82900
Mg862      Mg  0.18813903  0.97552626  0.47563896     1.58200
O863        O  0.32630274  0.52113851  0.07175352    -0.81200
O864        O  0.20578293  0.50141666  0.40151099    -0.82900
C865        C  0.25532828  0.85917843  0.15298881    -0.05600
C866        C  0.23062896  0.86443777  0.13710616    -0.33100
C867        C  0.23135188  0.88129322  0.11276186     0.36200
C868        C  0.25700289  0.89370115  0.10410286    -0.06000
C869        C  0.28142049  0.88969958  0.12076203    -0.33000
C870        C  0.28077972  0.87246433  0.14492870     0.36100
H871        H  0.21081652  0.85455899  0.14290419     0.16500
O872        O  0.20659581  0.88639013  0.09818741    -0.60400
H873        H  0.30114437  0.89968193  0.11484457     0.16500
O874        O  0.30524461  0.86844262  0.16026832    -0.60500
H875        H  0.30540716  0.88403197  0.17455639     0.43500
H876        H  0.20396142  0.86951835  0.08568364     0.43400
C877        C  0.24570845  0.64417660  0.35715401    -0.05600
C878        C  0.22059824  0.62947309  0.36329370    -0.33100
C879        C  0.21957715  0.61005021  0.38579126     0.36200
C880        C  0.24372657  0.60551841  0.40288640    -0.06000
C881        C  0.26849051  0.62087411  0.39730574    -0.33000
C882        C  0.26973021  0.63979088  0.37454143     0.36100
H883        H  0.20173428  0.63298024  0.35054689     0.16500
O884        O  0.19488825  0.59574790  0.39094683    -0.60400
H885        H  0.28731890  0.61761762  0.41019288     0.16500
O886        O  0.29416719  0.65485219  0.37030926    -0.60500
H887        H  0.30652044  0.64189832  0.35918290     0.43500
H888        H  0.18537884  0.60689680  0.40606175     0.43400
C889        C  0.35464491  0.60073427  0.49638392    -0.05600
C890        C  0.36628517  0.61335485  0.52076397    -0.33100
C891        C  0.38286610  0.63793109  0.51891032     0.36200
C892        C  0.38854644  0.65013995  0.49222498    -0.06000
C893        C  0.37710323  0.63735715  0.46777488    -0.33000
C894        C  0.35996129  0.61308722  0.46972922     0.36100
H895        H  0.36199936  0.60450588  0.54146509     0.16500
O896        O  0.39395609  0.64942984  0.54335415    -0.60400
H897        H  0.38151407  0.64616600  0.44709274     0.16500
O898        O  0.34859213  0.60155061  0.44544492    -0.60500
H899        H  0.36168204  0.58998191  0.93537976     0.43500
H900        H  0.41250284  0.63977106  0.54608201     0.43400
C901        C  0.10539575  0.84878626  0.01215918    -0.05600
C902        C  0.11121866  0.86110311  0.98578085    -0.33100
C903        C  0.13013144  0.88374687  0.98339508     0.36200
C904        C  0.14420304  0.89445440  0.00762003    -0.06000
C905        C  0.13885946  0.88184192  0.03407636    -0.33000
C906        C  0.11926315  0.85945454  0.03652041     0.36100
H907        H  0.10045125  0.85362497  0.96680652     0.16500
O908        O  0.13488542  0.89503991  0.95709050    -0.60400
H909        H  0.14964036  0.88957918  0.05292754     0.16500
O910        O  0.11385241  0.84824111  0.06270402    -0.60500
H911        H  0.12991088  0.82670539  0.55911939     0.43500
H912        H  0.15063586  0.88356259  0.94912511     0.43400
C913        C  0.10077373  0.75501062  0.39636128    -0.05600
C914        C  0.11147395  0.78148230  0.38744323    -0.33100
C915        C  0.13483226  0.78302011  0.36946614     0.36200
C916        C  0.14828074  0.75779763  0.36005002    -0.06000
C917        C  0.13781774  0.73132780  0.36918441    -0.33000
C918        C  0.11420576  0.72975738  0.38688025     0.36100
H919        H  0.10178257  0.80124074  0.39454740     0.16500
O920        O  0.14423247  0.80936508  0.36121150    -0.60400
H921        H  0.14751070  0.71160160  0.36198791     0.16500
O922        O  0.10513407  0.70340501  0.39548216    -0.60500
H923        H  0.09188242  0.69688179  0.38040893     0.43500
H924        H  0.15904700  0.81460938  0.37527991     0.43400
C925        C  0.39166770  0.74691282  0.10495367    -0.05600
C926        C  0.38120553  0.72042287  0.11413542    -0.33100
C927        C  0.35974033  0.71892701  0.13436351     0.36200
C928        C  0.34803138  0.74420178  0.14571092    -0.06000
C929        C  0.35818939  0.77065800  0.13625149    -0.33000
C930        C  0.37990972  0.77218264  0.11636520     0.36100
H931        H  0.38968958  0.70067004  0.10561481     0.16500
O932        O  0.35044440  0.69262307  0.14285765    -0.60400
H933        H  0.34974668  0.79041804  0.14480982     0.16500
O934        O  0.38877056  0.79856737  0.10763794    -0.60500
H935        H  0.40314318  0.80458620  0.12186532     0.43500
H936        H  0.33449195  0.68796391  0.12987814     0.43400
C937        C  0.37243678  0.66548729  0.26571569    -0.05600
C938        C  0.38347903  0.65169136  0.28984134    -0.33100
C939        C  0.40627794  0.63232237  0.28770100     0.36200
C940        C  0.41824135  0.62596477  0.26107461    -0.06000
C941        C  0.40806095  0.64043724  0.23718953    -0.33000
C942        C  0.38594852  0.66040357  0.23932770     0.36100
H943        H  0.37386360  0.65517816  0.31032104     0.16500
O944        O  0.41566664  0.61850088  0.31158792    -0.60400
H945        H  0.41696101  0.63583883  0.21657413     0.16500
O946        O  0.37674798  0.67349875  0.21496556    -0.60500
H947        H  0.38841155  0.69098522  0.21339525     0.43500
H948        H  0.40380176  0.60113938  0.31294613     0.43400
C949        C  0.12909705  0.83767377  0.23895149    -0.05600
C950        C  0.11726131  0.84694545  0.21312471    -0.33100
C951        C  0.09554177  0.86754508  0.21254573     0.36200
C952        C  0.08556948  0.87958755  0.23803954    -0.06000
C953        C  0.09642929  0.86943554  0.26381946    -0.33000
C954        C  0.11757712  0.84840756  0.26450293     0.36100
H955        H  0.12553284  0.83896908  0.19325988     0.16500
O956        O  0.08545315  0.87699771  0.18689506    -0.60400
H957        H  0.08904691  0.87848025  0.28361150     0.16500
O958        O  0.12828640  0.84025017  0.29034945    -0.60500
H959        H  0.11580555  0.82458654  0.29671745     0.43500
H960        H  0.09827757  0.89272546  0.18142569     0.43400
C961        C  0.12265732  0.48715643  0.33582451    -0.05600
C962        C  0.11948100  0.46811783  0.35841069    -0.33100
C963        C  0.14062027  0.46510072  0.37921301     0.36200
C964        C  0.16208277  0.98060555  0.38078358    -0.06000
C965        C  0.16695484  0.99563064  0.35540652    -0.33000
C966        C  0.14592233  0.99779738  0.33430639     0.36100
H967        H  0.10018272  0.45584626  0.36021525     0.16500
O968        O  0.13589797  0.44693393  0.40138583    -0.60400
H969        H  0.18681499  0.00658242  0.35222418     0.16500
O970        O  0.15093828  0.01359044  0.31048348    -0.60500
H971        H  0.15995129  0.00011146  0.29701140     0.43500
H972        H  0.14351218  0.42818461  0.39514040     0.43400
C973        C  0.38524159  0.01716612  0.15867431    -0.05600
C974        C  0.36808421  0.48871007  0.15802596    -0.33100
C975        C  0.34679828  0.48655511  0.13731613     0.36200
C976        C  0.34137931  0.50962669  0.11871501    -0.06000
C977        C  0.36998783  0.02267760  0.10972331    -0.33000
C978        C  0.39146537  0.02297524  0.13017413     0.36100
H979        H  0.37288001  0.47040919  0.17124901     0.16500
O980        O  0.33293303  0.46103712  0.13415550    -0.60400
H981        H  0.37557035  0.02667707  0.08787976     0.16500
O982        O  0.41856749  0.02934292  0.12214452    -0.60500
H983        H  0.42641796  0.01123395  0.11447531     0.43500
H984        H  0.31736076  0.46169868  0.14810132     0.43400
C985        C  0.99028546  0.91970793  0.12598489    -0.05600
C986        C  0.01384485  0.90999759  0.11105943    -0.33100
C987        C  0.01151533  0.88741195  0.09164755     0.36200
C988        C  0.48517246  0.87339140  0.08724508    -0.06000
C989        C  0.46133630  0.88395891  0.10160852    -0.33000
C990        C  0.46374447  0.90694248  0.12074064     0.36100
H991        H  0.03437540  0.91954191  0.11496527     0.16500
O992        O  0.03548472  0.87885078  0.07770409    -0.60400
H993        H  0.44095172  0.87378557  0.09880577     0.16500
O994        O  0.44030427  0.91573471  0.13540949    -0.60500
H995        H  0.44043619  0.90424539  0.15302362     0.43500
H996        H  0.04562899  0.86601374  0.09107234     0.43400
C997        C  0.00902057  0.63014057  0.41146910    -0.05600
C998        C  0.48359895  0.62148620  0.39832414    -0.33100
C999        C  0.48331938  0.59976367  0.37787951     0.36200
C1000       C  0.50862397  0.58561420  0.37060328    -0.06000
C1001       C  0.03375825  0.59294233  0.38494140    -0.33000
C1002       C  0.03420216  0.61535277  0.40483570     0.36100
H1003       H  0.46395812  0.63258452  0.40281176     0.16500
O1004       O  0.45834440  0.59334421  0.36429439    -0.60400
H1005       H  0.05347458  0.58247107  0.37946291     0.16500
O1006       O  0.05938391  0.62275914  0.41744792    -0.60500
H1007       H  0.06906962  0.63501192  0.40346746     0.42700
H1008       H  0.45007851  0.57748408  0.37531274     0.43400
O1009       O  0.47386429  0.53167945  0.71156838    -0.88500
C1010       C  0.46044401  0.51858906  0.79590644     0.87500
Mg1011     Mg  0.47664957  0.99587378  0.68340308     1.58100
O1012       O  0.03013851  0.53821809  0.77870283    -0.88200
O1013       O  0.49832752  0.56833713  0.72677404    -0.75600
C1014       C  0.06359484  0.90100549  0.74175347     0.92600
O1015       O  0.43654012  0.98153726  0.74159795    -0.75400
O1016       O  0.04308016  0.90252770  0.72417575    -0.82900
Mg1017     Mg  0.43769285  0.53153944  0.73905127     1.58000
C1018       C  0.09758667  0.49187209  0.81673887     0.92500
O1019       O  0.43108661  0.58092037  0.73937343    -0.81100
H1020       H  0.05773410  0.56542725  0.76179716    -0.06500
C1021       C  0.01364102  0.94966253  0.79027335     0.87400
O1022       O  0.02537347  0.99518608  0.68550299    -0.75700
O1023       O  0.46636754  0.53283098  0.77479905    -0.88400
O1024       O  0.07688888  0.50842973  0.82269479    -0.81200
C1025       C  0.50833152  0.56788718  0.84532569     0.92600
C1026       C  0.43680186  0.60067180  0.75724240     0.92500
Mg1027     Mg  0.06481743  0.97046005  0.75864062     1.58000
O1028       O  0.06935738  0.92140843  0.75879975    -0.81200
O1029       O  0.06732576  0.52356671  0.75535862    -0.75400
O1030       O  0.49316705  0.57394000  0.82374014    -0.81200
O1031       O  0.40757605  0.52977049  0.70112042    -0.82900
O1032       O  0.00856294  0.92904765  0.67249121    -0.81300
C1033       C  0.05193109  0.54343354  0.76542434     0.86900
O1034       O  0.03679701  0.96965533  0.72252771    -0.88400
O1035       O  0.02845297  0.97088823  0.78598568    -0.88500
O1036       O  0.00360968  0.93481613  0.76995915    -0.75600
Mg1037     Mg  0.49520848  0.56805757  0.77558737     1.58000
O1038       O  0.02533382  0.54669668  0.84537889    -0.82900
H1039       H  0.49277674  0.55869962  0.68509170    -0.06700
O1040       O  0.47337639  0.96625720  0.71811672    -0.88200
H1041       H  0.44506264  0.93956149  0.73459771    -0.06500
H1042       H  0.06595439  0.98614358  0.69694067    -0.06700
C1043       C  0.45141064  0.96144361  0.73124392     0.86900
C1044       C  0.48824339  0.55309482  0.70677777     0.87500
C1045       C  0.04373975  0.98346392  0.70149248     0.87500
H1046       H  0.00868427  0.94387329  0.81181257    -0.06600
O1047       O  0.47956707  0.50794587  0.81182411    -0.75700
Mg1048     Mg  0.00710017  0.93510105  0.72118615     1.58000
H1049       H  0.43846505  0.51464669  0.80065595    -0.06700
C1050       C  0.40793200  0.01425746  0.68045830     0.92500
O1051       O  0.47740909  0.95874025  0.65240175    -0.82900
C1052       C  0.99239334  0.93614028  0.65188658     0.92600
O1053       O  0.45822691  0.59919535  0.77361505    -0.82900
Mg1054     Mg  0.02839716  0.50929216  0.81409200     1.58200
O1055       O  0.42933195  0.99900663  0.67414205    -0.81200
O1056       O  0.09483970  0.97113228  0.79641754    -0.82900
O1057       O  0.99210904  0.77193368  0.55035195    -0.88500
C1058       C  0.43028484  0.75993147  0.99100147     0.87500
Mg1059     Mg  0.02810822  0.79773325  0.54083400     1.58100
O1060       O  0.47791924  0.70031695  0.50125696    -0.88200
O1061       O  0.48387872  0.72794693  0.56294339    -0.75600
C1062       C  0.07909226  0.75590634  0.91947278     0.92600
O1063       O  0.46892178  0.81555594  0.50289146    -0.75400
O1064       O  0.07473881  0.77821977  0.93424156    -0.82900
Mg1065     Mg  0.45122197  0.79059073  0.54066051     1.58000
C1066       C  0.00838698  0.65847729  0.92881759     0.92500
O1067       O  0.42712448  0.76976954  0.57807923    -0.81100
H1068       H  0.99457067  0.66975877  0.52580160    -0.06500
C1069       C  0.49480478  0.75227809  0.93293421     0.87400
O1070       O  0.05506892  0.75816805  0.53045440    -0.75700
O1071       O  0.44297676  0.75376374  0.51391020    -0.88400
O1072       O  0.48515904  0.66591414  0.94028720    -0.81200
C1073       C  0.40900759  0.67545960  0.98790803     0.92600
C1074       C  0.41345497  0.74673196  0.58263780     0.92500
Mg1075     Mg  0.03940322  0.71246191  0.95958912     1.58000
O1076       O  0.06499339  0.73302854  0.92327036    -0.81200
O1077       O  0.02065889  0.68687856  0.99632651    -0.75400
O1078       O  0.41107526  0.69173930  0.50999596    -0.81200
O1079       O  0.46139152  0.82983967  0.56888481    -0.82900
O1080       O  0.07966687  0.81070278  0.99174619    -0.81300
C1081       C  0.99761663  0.68454764  0.50856873     0.86900
O1082       O  0.04710054  0.74871923  0.98683962    -0.88400
O1083       O  0.49861227  0.73153880  0.94858488    -0.88500
O1084       O  0.00764390  0.77565864  0.93711481    -0.75600
Mg1085     Mg  0.44825927  0.71236153  0.53363341     1.58000
O1086       O  0.42596013  0.67632132  0.96720257    -0.82900
H1087       H  0.01197428  0.75370283  0.58320955    -0.06700
O1088       O  0.01306903  0.80215301  0.99928368    -0.88200
H1089       H  0.49682387  0.83306861  0.97488363    -0.06500
H1090       H  0.07501125  0.72603808  0.50953539    -0.06700
C1091       C  0.49355027  0.81821770  0.99201814     0.86900
C1092       C  0.99641426  0.75160831  0.56641697     0.87500
C1093       C  0.05994942  0.74345560  0.50834766     0.87500
H1094       H  0.47947246  0.75078209  0.91586792    -0.06600
O1095       O  0.43515257  0.74507518  0.96893766    -0.75700
Mg1096     Mg  0.04292841  0.79035884  0.96735140     1.58000
H1097       H  0.41519402  0.77732200  0.98975423    -0.06700
C1098       C  0.48358640  0.84538247  0.56902723     0.92500
O1099       O  0.06608503  0.82593364  0.53179416    -0.82900
C1100       C  0.08261769  0.82667653  0.51073336     0.92600
O1101       O  0.41720274  0.72447534  0.56758917    -0.82900
Mg1102     Mg  0.46239756  0.70567747  0.95736868     1.58200
O1103       O  0.00554961  0.83814370  0.55534116    -0.81200
O1104       O  0.03063563  0.67367015  0.93115372    -0.82900
O1105       O  0.27234985  0.70059528  0.75814507    -0.88500
C1106       C  0.25607902  0.75924991  0.81994616     0.87500
Mg1107     Mg  0.29754010  0.71104638  0.72234413     1.58100
O1108       O  0.20006910  0.74770577  0.77107888    -0.88200
O1109       O  0.22925160  0.68625964  0.76571236    -0.75600
C1110       C  0.25389369  0.83595135  0.67442767     0.92600
O1111       O  0.31425553  0.74937842  0.78202434    -0.75400
O1112       O  0.27617374  0.82136993  0.67886293    -0.82900
Mg1113     Mg  0.29034695  0.71065820  0.79922729     1.58000
C1114       C  0.15468995  0.81865281  0.74083232     0.92500
O1115       O  0.27044498  0.67268375  0.82291649    -0.81100
H1116       H  0.17107188  0.72230484  0.75310629    -0.06500
C1117       C  0.24733106  0.81827945  0.75664434     0.87400
O1118       O  0.25825757  0.72117723  0.69524503    -0.75700
O1119       O  0.25273732  0.73632650  0.80727140    -0.88400
O1120       O  0.16172516  0.80539490  0.76331663    -0.81200
C1121       C  0.17232719  0.75923976  0.84021925     0.92600
C1122       C  0.24748678  0.66718988  0.83591085     0.92500
Mg1123     Mg  0.21041775  0.79191374  0.71008171     1.58000
O1124       O  0.23057750  0.83052266  0.68686655    -0.81200
O1125       O  0.18644322  0.75287309  0.72706134    -0.75400
O1126       O  0.18850109  0.73755888  0.83741790    -0.81200
O1127       O  0.33046737  0.68331214  0.78934816    -0.82900
O1128       O  0.31091167  0.76479572  0.67252758    -0.81300
C1129       C  0.18514228  0.74028217  0.75078486     0.86900
O1130       O  0.24756082  0.76622797  0.70237915    -0.88400
O1131       O  0.22769877  0.80170977  0.75154923    -0.88500
O1132       O  0.27114822  0.81545728  0.74480597    -0.75600
Mg1133     Mg  0.21210851  0.71517583  0.80084524     1.58000
O1134       O  0.17331144  0.78014800  0.82322676    -0.82900
H1135       H  0.25591469  0.66665714  0.73828868    -0.06700
O1136       O  0.29992846  0.75414771  0.73823161    -0.88200
H1137       H  0.32953219  0.77939986  0.75536050    -0.06500
H1138       H  0.22636672  0.74179658  0.67469927    -0.06700
C1139       C  0.31533542  0.76159596  0.75813648     0.86900
C1140       C  0.25296333  0.68357916  0.75364833     0.87500
C1141       C  0.24354188  0.74330631  0.68990309     0.87500
H1142       H  0.24448789  0.83489781  0.77234812    -0.06600
O1143       O  0.24075003  0.78100548  0.81467324    -0.75700
Mg1144     Mg  0.28813181  0.78699005  0.70921490     1.58000
H1145       H  0.27298200  0.76105636  0.83542151    -0.06700
C1146       C  0.34563750  0.68324862  0.76698985     0.92500
O1147       O  0.32510380  0.72124053  0.68471418    -0.82900
C1148       C  0.32601583  0.74263168  0.66828425     0.92600
O1149       O  0.22476835  0.68122615  0.83175116    -0.82900
Mg1150     Mg  0.20175412  0.79089974  0.78671292     1.58200
O1151       O  0.33771521  0.69644327  0.74480368    -0.81200
O1152       O  0.17059504  0.81878967  0.71909445    -0.82900
O1153       O  0.29364713  0.97844923  0.53073663    -0.88500
C1154       C  0.20749124  0.97940027  0.54361343     0.87500
Mg1155     Mg  0.31557900  0.51611730  0.52538919     1.58100
O1156       O  0.22609710  0.95300890  0.97793489    -0.88200
O1157       O  0.28396372  0.93674137  0.51184386    -0.75600
C1158       C  0.24623350  0.58341042  0.92487677     0.92600
O1159       O  0.25383148  0.52385230  0.56232508    -0.75400
O1160       O  0.26170280  0.58733665  0.94657796    -0.82900
Mg1161     Mg  0.26564670  0.98024527  0.56678320     1.58000
C1162       C  0.18174383  0.98350324  0.90568861     0.92500
O1163       O  0.27440917  0.93373073  0.57965949    -0.81100
H1164       H  0.24718885  0.92472329  0.95418020    -0.06500
C1165       C  0.20476711  0.53483527  0.98008238     0.87400
O1166       O  0.31719432  0.50855664  0.97509028    -0.75700
O1167       O  0.23090231  0.96875571  0.53880469    -0.88400
O1168       O  0.17742161  0.96973090  0.92856785    -0.81200
C1169       C  0.16709737  0.91584931  0.50323314     0.92600
C1170       C  0.25860440  0.91180943  0.57855998     0.92500
Mg1171     Mg  0.24159654  0.51314544  0.93197287     1.58000
O1172       O  0.23350659  0.55994580  0.92039036    -0.81200
O1173       O  0.24743339  0.96525195  0.93899359    -0.75400
O1174       O  0.18893126  0.91509743  0.51929691    -0.81200
O1175       O  0.30187158  0.99275595  0.59610244    -0.82900
O1176       O  0.31550146  0.57572399  0.98143323    -0.81300
C1177       C  0.24022855  0.94658390  0.95695368     0.86900
O1178       O  0.27567558  0.52346289  0.96066256    -0.88400
O1179       O  0.21305027  0.51340523  0.96713277    -0.88500
O1180       O  0.22186713  0.55359774  0.98938585    -0.75600
Mg1181     Mg  0.23576385  0.92943866  0.51584813     1.58000
O1182       O  0.16258731  0.93586112  0.98536922    -0.82900
H1183       H  0.32369804  0.95296045  0.51481747    -0.06700
O1184       O  0.27521412  0.53746553  0.52389726    -0.88200
H1185       H  0.25367953  0.56481868  0.54832086    -0.06500
H1186       H  0.30473326  0.50846652  0.93380232    -0.06700
C1187       C  0.26089906  0.54312907  0.54496457     0.86900
C1188       C  0.30146828  0.95602563  0.51921494     0.87500
C1189       C  0.29931210  0.51349838  0.95546544     0.87500
H1190       H  0.18244123  0.53722125  0.98437422    -0.06600
O1191       O  0.18974235  0.98401348  0.52379407    -0.75700
Mg1192     Mg  0.26963553  0.56156046  0.98553098     1.58000
H1193       H  0.20215863  0.98531446  0.56508230    -0.06700
C1194       C  0.31929574  0.50587676  0.59530495     0.92500
O1195       O  0.33853922  0.55832095  0.51890506    -0.82900
C1196       C  0.33752388  0.57610038  0.99704768     0.92600
O1197       O  0.24246819  0.90688142  0.55747127    -0.82900
Mg1198     Mg  0.18668878  0.97650373  0.97668647     1.58200
O1199       O  0.32257809  0.52210523  0.57391628    -0.81200
O1200       O  0.20531364  0.50333065  0.90260487    -0.82900
C1201       C  0.25480482  0.85817959  0.65224413    -0.05600
C1202       C  0.23036363  0.86380198  0.63611220    -0.33100
C1203       C  0.23161629  0.88063620  0.61175133     0.36200
C1204       C  0.25754347  0.89266938  0.60333645    -0.06000
C1205       C  0.28171570  0.88829914  0.62023926    -0.33000
C1206       C  0.28056027  0.87106102  0.64438940     0.36100
H1207       H  0.21035678  0.85421428  0.64172392     0.16500
O1208       O  0.20710535  0.88606925  0.59688915    -0.60400
H1209       H  0.30165483  0.89795482  0.61450392     0.16500
O1210       O  0.30485270  0.86657514  0.65988634    -0.60500
H1211       H  0.30550759  0.88247505  0.67381990     0.43500
H1212       H  0.20443285  0.86926372  0.58430570     0.43400
C1213       C  0.24745499  0.64499842  0.85793971    -0.05600
C1214       C  0.22312850  0.62844267  0.86212224    -0.33100
C1215       C  0.22196466  0.60872004  0.88428951     0.36200
C1216       C  0.24514450  0.60581652  0.90304198    -0.06000
C1217       C  0.26913663  0.62294130  0.89923810    -0.33000
C1218       C  0.27055145  0.64214527  0.87676538     0.36100
H1219       H  0.20501113  0.63073897  0.84807650     0.16500
O1220       O  0.19812764  0.59244655  0.88739220    -0.60400
H1221       H  0.28727705  0.62092853  0.91331046     0.16500
O1222       O  0.29406989  0.65900391  0.87422420    -0.60500
H1223       H  0.30808383  0.64703575  0.86403232     0.43500
H1224       H  0.18637316  0.60292167  0.90133738     0.43400
C1225       C  0.35726156  0.60032648  0.99375561    -0.05600
C1226       C  0.37045254  0.61184728  0.01789807    -0.33100
C1227       C  0.38619957  0.63700511  0.01627320     0.36200
C1228       C  0.38937501  0.65105466  0.99007682    -0.06000
C1229       C  0.37677590  0.63920590  0.96573662    -0.33000
C1230       C  0.36052097  0.61427004  0.96747356     0.36100
H1231       H  0.36794433  0.60173878  0.03833294     0.16500
O1232       O  0.39898923  0.64730933  0.04041140    -0.60400
H1233       H  0.37950453  0.64932879  0.94534315     0.16500
O1234       O  0.34786189  0.60376847  0.94335936    -0.60500
H1235       H  0.36291060  0.58761807  0.43867458     0.43500
H1236       H  0.41807432  0.63839332  0.04078473     0.43400
C1237       C  0.10542841  0.84827326  0.50973296    -0.05600
C1238       C  0.10989436  0.86233025  0.48396117    -0.33100
C1239       C  0.12932820  0.88458201  0.48187953     0.36200
C1240       C  0.14532341  0.89315756  0.50578988    -0.06000
C1241       C  0.14129284  0.87874849  0.53160366    -0.33000
C1242       C  0.12121372  0.85673728  0.53377558     0.36100
H1243       H  0.09768034  0.85650468  0.46529084     0.16500
O1244       O  0.13260017  0.89764258  0.45615456    -0.60400
H1245       H  0.15348771  0.88477518  0.55020804     0.16500
O1246       O  0.11726514  0.84367276  0.55937861    -0.60500
H1247       H  0.12740752  0.83214530  0.06488872     0.43500
H1248       H  0.14716852  0.88618338  0.44618063     0.43400
C1249       C  0.10242542  0.75641128  0.89850106    -0.05600
C1250       C  0.11318285  0.78280583  0.88944937    -0.33100
C1251       C  0.13656817  0.78418274  0.87146635     0.36200
C1252       C  0.15000230  0.75887721  0.86222160    -0.06000
C1253       C  0.13963660  0.73250140  0.87172288    -0.33000
C1254       C  0.11599916  0.73108963  0.88940828     0.36100
H1255       H  0.10343096  0.80260906  0.89634697     0.16500
O1256       O  0.14595119  0.81044701  0.86295377    -0.60400
H1257       H  0.14936759  0.71271131  0.86475400     0.16500
O1258       O  0.10701199  0.70483048  0.89837345    -0.60500
H1259       H  0.09418953  0.69781775  0.88314666     0.43500
H1260       H  0.16077534  0.81582849  0.87695974     0.43400
C1261       C  0.39153351  0.74586306  0.60514408    -0.05600
C1262       C  0.38004245  0.71941886  0.61329731    -0.33100
C1263       C  0.35815204  0.71792554  0.63310526     0.36200
C1264       C  0.34702566  0.74315046  0.64509387    -0.06000
C1265       C  0.35813107  0.76956577  0.63662649    -0.33000
C1266       C  0.38026640  0.77108417  0.61716656     0.36100
H1267       H  0.38801924  0.69968067  0.60427191     0.16500
O1268       O  0.34785415  0.69167528  0.64054532    -0.60400
H1269       H  0.35015906  0.78927794  0.64572911     0.16500
O1270       O  0.39010777  0.79746331  0.60955982    -0.60500
H1271       H  0.40447351  0.80245269  0.62418404     0.43500
H1272       H  0.33141149  0.68839830  0.62775968     0.43400
C1273       C  0.37212570  0.66562634  0.76512425    -0.05600
C1274       C  0.38372923  0.65253776  0.78935306    -0.33100
C1275       C  0.40599538  0.63262246  0.78711128     0.36200
C1276       C  0.41678206  0.62498771  0.76029785    -0.06000
C1277       C  0.40607477  0.63875970  0.73624485    -0.33000
C1278       C  0.38453788  0.65931577  0.73845170     0.36100
H1279       H  0.37494565  0.65700983  0.81003116     0.16500
O1280       O  0.41601417  0.61956805  0.81117375    -0.60400
H1281       H  0.41415346  0.63322496  0.71550616     0.16500
O1282       O  0.37476449  0.67177825  0.71397783    -0.60500
H1283       H  0.38670565  0.68894431  0.71142517     0.43500
H1284       H  0.40424015  0.60223786  0.81336400     0.43400
C1285       C  0.12821634  0.83603316  0.74125659    -0.05600
C1286       C  0.11458548  0.84386827  0.71586236    -0.33100
C1287       C  0.09196195  0.86346666  0.71588213     0.36200
C1288       C  0.08282928  0.87589073  0.74154965    -0.06000
C1289       C  0.09558471  0.86709365  0.76698021    -0.33000
C1290       C  0.11775425  0.84718633  0.76708884     0.36100
H1291       H  0.12208131  0.83552654  0.69583061     0.16500
O1292       O  0.08016932  0.87166369  0.69052123    -0.60400
H1293       H  0.08902817  0.87652649  0.78689327     0.16500
O1294       O  0.13053506  0.84071863  0.79248929    -0.60500
H1295       H  0.11895817  0.82520428  0.80064845     0.43500
H1296       H  0.09170625  0.88804293  0.68414275     0.43400
C1297       C  0.12206942  0.49037142  0.83665946    -0.05600
C1298       C  0.13399000  0.46367391  0.84388011    -0.33100
C1299       C  0.15483239  0.46142637  0.86527361     0.36200
C1300       C  0.16167864  0.98057045  0.88123410    -0.06000
C1301       C  0.16405388  0.99925853  0.85795969    -0.33000
C1302       C  0.14295668  0.00061675  0.83692478     0.36100
H1303       H  0.12633536  0.44438311  0.83368956     0.16500
O1304       O  0.16532493  0.43506296  0.87250013    -0.60400
H1305       H  0.18175932  0.01378871  0.85655552     0.16500
O1306       O  0.14533835  0.01992033  0.81531024    -0.60500
H1307       H  0.15552413  0.00954595  0.80011258     0.43500
H1308       H  0.18152720  0.43178323  0.85965467     0.43400
C1309       C  0.38480881  0.01603870  0.65937666    -0.05600
C1310       C  0.37251302  0.48439210  0.65179457    -0.33100
C1311       C  0.35093915  0.48266699  0.63137902     0.36200
C1312       C  0.33943412  0.50780947  0.61941163    -0.06000
C1313       C  0.36996772  0.02317369  0.61047779    -0.33000
C1314       C  0.39120986  0.02314966  0.63121648     0.36100
H1315       H  0.38185227  0.46484801  0.65991857     0.16500
O1316       O  0.34279749  0.45624785  0.62167920    -0.60400
H1317       H  0.37571453  0.02807521  0.58886601     0.16500
O1318       O  0.41828119  0.03035431  0.62380371    -0.60500
H1319       H  0.42664784  0.01264820  0.61577061     0.43500
H1320       H  0.32881091  0.44936351  0.63560364     0.43400
C1321       C  0.98965188  0.91630763  0.62761140    -0.05600
C1322       C  0.01391729  0.90551121  0.61461240    -0.33100
C1323       C  0.01202991  0.88367901  0.59434448     0.36200
C1324       C  0.48538070  0.87158160  0.58711191    -0.06000
C1325       C  0.46097170  0.88318268  0.59959375    -0.33000
C1326       C  0.46296417  0.90544790  0.61954664     0.36100
H1327       H  0.03456242  0.91359989  0.62068781     0.16500
O1328       O  0.03664760  0.87373765  0.58256160    -0.60400
H1329       H  0.44034402  0.87442094  0.59456002     0.16500
O1330       O  0.43879439  0.91537930  0.63220254    -0.60500
H1331       H  0.43658053  0.90353289  0.64941323     0.43500
H1332       H  0.04402672  0.85921340  0.59600711     0.43400
C1333       C  0.00827636  0.63258438  0.91043748    -0.05600
C1334       C  0.48293333  0.62485300  0.89658509    -0.33100
C1335       C  0.48235525  0.60289849  0.87639167     0.36200
C1336       C  0.50728055  0.58760640  0.86999446    -0.06000
C1337       C  0.03227925  0.59413131  0.88500741    -0.33000
C1338       C  0.03302508  0.61671938  0.90471891     0.36100
H1339       H  0.46361341  0.63676559  0.90041296     0.16500
O1340       O  0.45747925  0.59730259  0.86226892    -0.60400
H1341       H  0.05171713  0.58277208  0.88029901     0.16500
O1342       O  0.05804639  0.62313079  0.91817356    -0.60500
H1343       H  0.06863405  0.63504317  0.90457216     0.42700
H1344       H  0.44796541  0.58247976  0.87367588     0.43400
O1345       O  0.97461581  0.03369125  0.21263108    -0.88500
C1346       C  0.95934450  0.01690777  0.29601524     0.87500
Mg1347     Mg  0.97694171  0.49740313  0.18198513     1.58100
O1348       O  0.52959939  0.03694606  0.28141470    -0.88200
O1349       O  0.99896395  0.06944656  0.23009100    -0.75600
C1350       C  0.56776492  0.40509264  0.23798705     0.92600
O1351       O  0.93835974  0.48385361  0.23977612    -0.75400
O1352       O  0.54642447  0.40627924  0.22145243    -0.82900
Mg1353     Mg  0.93778481  0.03185686  0.23980279     1.58000
C1354       C  0.59588309  0.98866166  0.31798595     0.92500
O1355       O  0.93122007  0.08111308  0.24191351    -0.81100
H1356       H  0.55718465  0.06510289  0.26609908    -0.06500
C1357       C  0.51863077  0.45244618  0.28796375     0.87400
O1358       O  0.52586432  0.49834751  0.18258663    -0.75700
O1359       O  0.96600361  0.03186748  0.27567086    -0.88400
O1360       O  0.57421907  0.00301269  0.32556692    -0.81200
C1361       C  0.00653157  0.06312273  0.34857587     0.92600
C1362       C  0.93695619  0.10047749  0.26017311     0.92500
Mg1363     Mg  0.56850038  0.47500160  0.25507994     1.58000
O1364       O  0.57457601  0.42589667  0.25418615    -0.81200
O1365       O  0.56673863  0.02373102  0.25716648    -0.75400
O1366       O  0.99186059  0.07040022  0.32701299    -0.81200
O1367       O  0.90728928  0.03094215  0.20217436    -0.82900
O1368       O  0.51152618  0.43235493  0.17084701    -0.81300
C1369       C  0.55142504  0.04292004  0.26850609     0.86900
O1370       O  0.53946958  0.47363434  0.21960882    -0.88400
O1371       O  0.53268154  0.47405332  0.28315029    -0.88500
O1372       O  0.50800864  0.43756863  0.26802671    -0.75600
Mg1373     Mg  0.99481534  0.06693964  0.27871999     1.58000
O1374       O  0.52310404  0.04159993  0.34814907    -0.82900
H1375       H  0.99414559  0.06192894  0.18791190    -0.06700
O1376       O  0.97604548  0.46907413  0.21743338    -0.88200
H1377       H  0.94802964  0.44192527  0.23375060    -0.06500
H1378       H  0.56710004  0.49116716  0.19299496    -0.06700
C1379       C  0.95399745  0.46389589  0.23026955     0.86900
C1380       C  0.98916274  0.05527514  0.20919585     0.87500
C1381       C  0.54517117  0.48760487  0.19824076     0.87500
H1382       H  0.51469683  0.44646798  0.30967156    -0.06600
O1383       O  0.97791295  0.00521844  0.31179514    -0.75700
Mg1384     Mg  0.51031795  0.43840773  0.21936401     1.58000
H1385       H  0.93719331  0.01317187  0.30011190    -0.06700
C1386       C  0.90825871  0.51441329  0.18052646     0.92500
O1387       O  0.97739733  0.45924009  0.15200413    -0.82900
C1388       C  0.49366849  0.43758868  0.15117635     0.92600
O1389       O  0.95800058  0.09842295  0.27700208    -0.82900
Mg1390     Mg  0.52656262  0.00590206  0.31514330     1.58200
O1391       O  0.92861920  0.49727409  0.17552570    -0.81200
O1392       O  0.59915936  0.47633308  0.29256661    -0.82900
O1393       O  0.49314222  0.27257294  0.04872665    -0.88500
C1394       C  0.93099031  0.25983998  0.48857979     0.87500
Mg1395     Mg  0.52930946  0.29833661  0.03956009     1.58100
O1396       O  0.97762382  0.20185517  0.99886636    -0.88200
O1397       O  0.98418163  0.22855151  0.06070624    -0.75600
C1398       C  0.57842860  0.25411556  0.41568536     0.92600
O1399       O  0.97011996  0.31708676  0.00195557    -0.75400
O1400       O  0.57375310  0.27661363  0.43006479    -0.82900
Mg1401     Mg  0.95238237  0.29174918  0.03948372     1.58000
C1402       C  0.50791959  0.15600389  0.42853258     0.92500
O1403       O  0.92860442  0.27073717  0.07682762    -0.81100
H1404       H  0.49405596  0.17115778  0.02337068    -0.06500
C1405       C  0.99446773  0.25048090  0.42995730     0.87400
O1406       O  0.55605933  0.25879383  0.02853497    -0.75700
O1407       O  0.94342487  0.25544178  0.01219326    -0.88400
O1408       O  0.98481837  0.16430210  0.43967866    -0.81200
C1409       C  0.90829173  0.17591308  0.48618668     0.92600
C1410       C  0.91468256  0.24785667  0.08126660     0.92500
Mg1411     Mg  0.53934831  0.21099929  0.45688344     1.58000
O1412       O  0.56477263  0.23103170  0.41999703    -0.81200
O1413       O  0.52071628  0.18639165  0.49429315    -0.75400
O1414       O  0.91070681  0.19337113  0.00744903    -0.81200
O1415       O  0.96295365  0.33030900  0.06833914    -0.82900
O1416       O  0.57959647  0.30951718  0.48691168    -0.81300
C1417       C  0.49723782  0.18599144  0.00620341     0.86900
O1418       O  0.54721643  0.24774675  0.48329619    -0.88400
O1419       O  0.99859212  0.22994648  0.44579947    -0.88500
O1420       O  0.50695124  0.27408971  0.43389537    -0.75600
Mg1421     Mg  0.94820998  0.21370734  0.03136319     1.58000
O1422       O  0.92548129  0.17612217  0.46566961    -0.82900
H1423       H  0.51289663  0.25347029  0.08115820    -0.06700
O1424       O  0.51330534  0.30135568  0.49594469    -0.88200
H1425       H  0.99687387  0.33250031  0.47194568    -0.06500
H1426       H  0.57564808  0.22676309  0.00713127    -0.06700
C1427       C  0.99380659  0.31762847  0.48910395     0.86900
C1428       C  0.49720332  0.25191685  0.06443187     0.87500
C1429       C  0.56061485  0.24422431  0.00627605     0.87500
H1430       H  0.97902058  0.24864428  0.41302736    -0.06600
O1431       O  0.93577504  0.24474118  0.46663039    -0.75700
Mg1432     Mg  0.54253590  0.28912795  0.46347815     1.58000
H1433       H  0.91628400  0.27754044  0.48705203    -0.06700
C1434       C  0.98519583  0.34574671  0.06899148     0.92500
O1435       O  0.56720914  0.32650813  0.03045311    -0.82900
C1436       C  0.58384633  0.32682132  0.00945981     0.92600
O1437       O  0.91763951  0.22578859  0.06576004    -0.82900
Mg1438     Mg  0.96234094  0.20470035  0.45545788     1.58200
O1439       O  0.50722098  0.33865888  0.05531002    -0.81200
O1440       O  0.53026323  0.17121537  0.42973489    -0.82900
O1441       O  0.77232695  0.19948372  0.25540284    -0.88500
C1442       C  0.75455273  0.25746083  0.31728432     0.87500
Mg1443     Mg  0.79875170  0.21066593  0.22071383     1.58100
O1444       O  0.69969786  0.24718279  0.26697029    -0.88200
O1445       O  0.72876095  0.18558446  0.26118336    -0.75600
C1446       C  0.75583179  0.33570392  0.17254992     0.92600
O1447       O  0.81339716  0.24806197  0.28120654    -0.75400
O1448       O  0.77801067  0.32109392  0.17736341    -0.82900
Mg1449     Mg  0.78885521  0.20915182  0.29718755     1.58000
C1450       C  0.65572026  0.31935620  0.23701625     0.92500
O1451       O  0.76809928  0.17097843  0.32005237    -0.81100
H1452       H  0.67057898  0.22245269  0.24827186    -0.06500
C1453       C  0.74768037  0.31777422  0.25466079     0.87400
O1454       O  0.76018451  0.22122102  0.19255044    -0.75700
O1455       O  0.75124381  0.23477679  0.30419412    -0.88400
O1456       O  0.66200448  0.30561110  0.25943530    -0.81200
C1457       C  0.67106287  0.25796365  0.33587969     0.92600
C1458       C  0.74473921  0.16553148  0.33237590     0.92500
Mg1459     Mg  0.71165343  0.29200412  0.20711891     1.58000
O1460       O  0.73242988  0.33057956  0.18488952    -0.81200
O1461       O  0.68680379  0.25310792  0.22287830    -0.75400
O1462       O  0.68675438  0.23603409  0.33254392    -0.81200
O1463       O  0.82923787  0.18214183  0.28854254    -0.82900
O1464       O  0.81247104  0.26473639  0.17140539    -0.81300
C1465       C  0.68495035  0.24024145  0.24639100     0.86900
O1466       O  0.74886636  0.26605370  0.20014957    -0.88400
O1467       O  0.72814087  0.30127381  0.24897715    -0.88500
O1468       O  0.77176659  0.31499868  0.24336429    -0.75600
Mg1469     Mg  0.71075505  0.21397251  0.29635577     1.58000
O1470       O  0.67238530  0.27924393  0.31936660    -0.82900
H1471       H  0.75611070  0.16620643  0.23428066    -0.06700
O1472       O  0.80043562  0.25356923  0.23710499    -0.88200
H1473       H  0.82949796  0.27853997  0.25554719    -0.06500
H1474       H  0.72856034  0.24187483  0.17158526    -0.06700
C1475       C  0.81520429  0.26070741  0.25758958     0.86900
C1476       C  0.75286045  0.18283419  0.24989445     0.87500
C1477       C  0.74532963  0.24328702  0.18724657     0.87500
H1478       H  0.74450099  0.33427368  0.27042171    -0.06600
O1479       O  0.73969013  0.27950487  0.31192951    -0.75700
Mg1480     Mg  0.78932027  0.28668458  0.20794661     1.58000
H1481       H  0.77111639  0.25882129  0.33316727    -0.06700
C1482       C  0.84546298  0.18250384  0.26696453     0.92500
O1483       O  0.82751935  0.22172399  0.18433156    -0.82900
C1484       C  0.82826374  0.24297483  0.16771837     0.92600
O1485       O  0.72215037  0.17947213  0.32730219    -0.82900
Mg1486     Mg  0.70142871  0.29018684  0.28338747     1.58200
O1487       O  0.83832667  0.19564231  0.24444927    -0.81200
O1488       O  0.67203036  0.31934197  0.21558199    -0.82900
O1489       O  0.79488892  0.47671750  0.02964085    -0.88500
C1490       C  0.70852604  0.47741381  0.04145028     0.87500
Mg1491     Mg  0.81598482  0.01735018  0.02273258     1.58100
O1492       O  0.72944260  0.45073736  0.47467622    -0.88200
O1493       O  0.78513713  0.43555848  0.00947767    -0.75600
C1494       C  0.74299014  0.08321780  0.42300136     0.92600
O1495       O  0.75550567  0.02892680  0.06193344    -0.75400
O1496       O  0.75852477  0.08762309  0.44460374    -0.82900
Mg1497     Mg  0.76664499  0.47696991  0.06512937     1.58000
C1498       C  0.68584519  0.48330138  0.40239361     0.92500
O1499       O  0.77651157  0.43022372  0.07512691    -0.81100
H1500       H  0.75192505  0.42376357  0.45071417    -0.06500
C1501       C  0.70293712  0.03564983  0.48024526     0.87400
O1502       O  0.81475639  0.00886927  0.47422429    -0.75700
O1503       O  0.73201576  0.46697595  0.03652389    -0.88400
O1504       O  0.68166668  0.46823754  0.42448552    -0.81200
C1505       C  0.66832131  0.41538633  0.00023099     0.92600
C1506       C  0.75981106  0.40906026  0.07490826     0.92500
Mg1507     Mg  0.73906452  0.01273536  0.43186438     1.58000
O1508       O  0.73062757  0.05944315  0.41880945    -0.81200
O1509       O  0.75158686  0.46476211  0.43679092    -0.75400
O1510       O  0.68997619  0.41477276  0.01649038    -0.81200
O1511       O  0.80260017  0.48766847  0.09487263    -0.82900
O1512       O  0.81348613  0.07704234  0.47886891    -0.81300
C1513       C  0.74434412  0.44534985  0.45395031     0.86900
O1514       O  0.77342837  0.02425135  0.45964946    -0.88400
O1515       O  0.71121908  0.01392170  0.46781509    -0.88500
O1516       O  0.72001648  0.05474492  0.48883048    -0.75600
Mg1517     Mg  0.73682734  0.42815073  0.01312704     1.58000
O1518       O  0.66579350  0.43221108  0.47981898    -0.82900
H1519       H  0.82487787  0.45174179  0.01282041    -0.06700
O1520       O  0.77638562  0.03997064  0.02249048    -0.88200
H1521       H  0.75695241  0.06926305  0.04644322    -0.06500
H1522       H  0.80209923  0.00813009  0.43301202    -0.06700
C1523       C  0.76308623  0.04714617  0.04375692     0.86900
C1524       C  0.80266040  0.45466905  0.01735386     0.87500
C1525       C  0.79688391  0.01377517  0.45458273     0.87500
H1526       H  0.68065318  0.03800395  0.48475543    -0.06600
O1527       O  0.69078232  0.48223014  0.02164963    -0.75700
Mg1528     Mg  0.76761528  0.06271452  0.48395781     1.58000
H1529       H  0.70307427  0.48286481  0.06300733    -0.06700
C1530       C  0.82123408  0.01133684  0.09361822     0.92500
O1531       O  0.83947691  0.05902358  0.01400182    -0.82900
C1532       C  0.83544804  0.07753499  0.49459199     0.92600
O1533       O  0.74283357  0.40468781  0.05440212    -0.82900
Mg1534     Mg  0.68954193  0.47350561  0.47296196     1.58200
O1535       O  0.82538300  0.02399063  0.07013606    -0.81200
O1536       O  0.70278793  0.00090731  0.40282899    -0.82900
C1537       C  0.75676027  0.35736293  0.14984620    -0.05600
C1538       C  0.73199665  0.36328302  0.13429047    -0.33100
C1539       C  0.73297063  0.37935843  0.10943785     0.36200
C1540       C  0.75895035  0.39033489  0.09994214    -0.06000
C1541       C  0.78351788  0.38564397  0.11618283    -0.33000
C1542       C  0.78262897  0.36916428  0.14083385     0.36100
H1543       H  0.71188792  0.35450532  0.14075635     0.16500
O1544       O  0.70818370  0.38515528  0.09518515    -0.60400
H1545       H  0.80353892  0.39453070  0.10958504     0.16500
O1546       O  0.80727061  0.36435303  0.15566229    -0.60500
H1547       H  0.80836526  0.38008191  0.16975942     0.43500
H1548       H  0.70472167  0.36819078  0.08301228     0.43400
C1549       C  0.74422724  0.14385511  0.35500304    -0.05600
C1550       C  0.71986366  0.12734435  0.35936286    -0.33100
C1551       C  0.71856053  0.10803472  0.38196429     0.36200
C1552       C  0.74164795  0.10545870  0.40090164    -0.06000
C1553       C  0.76545058  0.12284835  0.39711368    -0.33000
C1554       C  0.76698108  0.14166362  0.37433393     0.36100
H1555       H  0.70186953  0.12931451  0.34511347     0.16500
O1556       O  0.69468594  0.09187685  0.38532386    -0.60400
H1557       H  0.78344161  0.12130993  0.41143315     0.16500
O1558       O  0.79030248  0.15882521  0.37195897    -0.60500
H1559       H  0.80476804  0.14682184  0.36246144     0.43500
H1560       H  0.68309438  0.10245655  0.39933250     0.43400
C1561       C  0.85495295  0.10192827  0.49167909    -0.05600
C1562       C  0.86525697  0.11530484  0.51625967    -0.33100
C1563       C  0.88118464  0.14034150  0.51468290     0.36200
C1564       C  0.88761872  0.15230164  0.48807883    -0.06000
C1565       C  0.87739996  0.13882676  0.46340125    -0.33000
C1566       C  0.86084283  0.11408000  0.46507616     0.36100
H1567       H  0.86040538  0.10665798  0.53691468     0.16500
O1568       O  0.89097253  0.15249861  0.53936158    -0.60400
H1569       H  0.88241298  0.14739451  0.44276092     0.16500
O1570       O  0.85068979  0.10184044  0.44059799    -0.60500
H1571       H  0.86312987  0.08945395  0.93433727     0.43500
H1572       H  0.90938276  0.14298061  0.54328810     0.43400
C1573       C  0.60680644  0.34820306  0.00815869    -0.05600
C1574       C  0.61304657  0.36000608  0.98163090    -0.33100
C1575       C  0.63246434  0.38216876  0.97903650     0.36200
C1576       C  0.64659396  0.39289764  0.00318368    -0.06000
C1577       C  0.64092062  0.38074777  0.02977921    -0.33000
C1578       C  0.62086713  0.35882421  0.03243300     0.36100
H1579       H  0.60222897  0.35252399  0.96268956     0.16500
O1580       O  0.63764307  0.39298579  0.95261778    -0.60400
H1581       H  0.65177941  0.38851656  0.04857496     0.16500
O1582       O  0.61517779  0.34805136  0.05873895    -0.60500
H1583       H  0.62959819  0.33076981  0.56044921     0.43500
H1584       H  0.65335910  0.38120502  0.94501928     0.43400
C1585       C  0.60166755  0.25476235  0.39460158    -0.05600
C1586       C  0.61281895  0.28123331  0.38616289    -0.33100
C1587       C  0.63610921  0.28271029  0.36808023     0.36200
C1588       C  0.64892238  0.25743974  0.35798798    -0.06000
C1589       C  0.63826267  0.23099221  0.36693489    -0.33000
C1590       C  0.61482143  0.22948241  0.38483226     0.36100
H1591       H  0.60350655  0.30102488  0.39366861     0.16500
O1592       O  0.64605336  0.30902212  0.36036703    -0.60400
H1593       H  0.64762439  0.21123268  0.35939686     0.16500
O1594       O  0.60560977  0.20313843  0.39330117    -0.60500
H1595       H  0.59259848  0.19660182  0.37802655     0.43500
H1596       H  0.66127989  0.31346183  0.37427000     0.43400
C1597       C  0.89342445  0.24696788  0.10426831    -0.05600
C1598       C  0.88438973  0.22040223  0.11462087    -0.33100
C1599       C  0.86281963  0.21861120  0.13470122     0.36200
C1600       C  0.84951520  0.24365813  0.14473210    -0.06000
C1601       C  0.85839422  0.27021420  0.13421978    -0.33000
C1602       C  0.88026213  0.27204588  0.11447689     0.36100
H1603       H  0.89405159  0.20080118  0.10706340     0.16500
O1604       O  0.85497728  0.19221777  0.14431619    -0.60400
H1605       H  0.84875580  0.28984146  0.14175271     0.16500
O1606       O  0.88776665  0.29843117  0.10454564    -0.60500
H1607       H  0.90137155  0.30607338  0.11875694     0.43500
H1608       H  0.83931067  0.18613714  0.13157549     0.43400
C1609       C  0.87236469  0.16542379  0.26656322    -0.05600
C1610       C  0.88096203  0.14982283  0.29056860    -0.33100
C1611       C  0.90325203  0.12990693  0.28905715     0.36200
C1612       C  0.91718557  0.12491439  0.26319113    -0.06000
C1613       C  0.90972660  0.14136487  0.23960197    -0.33000
C1614       C  0.88810252  0.16191353  0.24122904     0.36100
H1615       H  0.86965514  0.15214488  0.31031507     0.16500
O1616       O  0.91016073  0.11420250  0.31261792    -0.60400
H1617       H  0.92037155  0.13789395  0.21962723     0.16500
O1618       O  0.88165217  0.17726426  0.21731908    -0.60500
H1619       H  0.89368158  0.19455359  0.21848973     0.43500
H1620       H  0.89821124  0.09686302  0.31140939     0.43400
C1621       C  0.62978021  0.33758769  0.23721889    -0.05600
C1622       C  0.61753905  0.34712951  0.21169330    -0.33100
C1623       C  0.59582687  0.36774230  0.21172418     0.36200
C1624       C  0.58640185  0.37960559  0.23752267    -0.06000
C1625       C  0.59766166  0.36919701  0.26299701    -0.33000
C1626       C  0.61870516  0.34807232  0.26308828     0.36100
H1627       H  0.62543003  0.33930064  0.19161533     0.16500
O1628       O  0.58516025  0.37734732  0.18635841    -0.60400
H1629       H  0.59064800  0.37807689  0.28299699     0.16500
O1630       O  0.62976051  0.33955817  0.28867789    -0.60500
H1631       H  0.61707966  0.32414178  0.29523698     0.43500
H1632       H  0.59765983  0.39332409  0.18084806     0.43400
C1633       C  0.61935309  0.98533232  0.33851397    -0.05600
C1634       C  0.61466949  0.96952489  0.36317628    -0.33100
C1635       C  0.63578286  0.96672751  0.38400562     0.36200
C1636       C  0.66552756  0.48170342  0.37796129    -0.06000
C1637       C  0.66900273  0.50000610  0.35451957    -0.33000
C1638       C  0.64786427  0.50268084  0.33356022     0.36100
H1639       H  0.59432182  0.95951038  0.36645533     0.16500
O1640       O  0.62976321  0.95165595  0.40805185    -0.60400
H1641       H  0.68772080  0.51315164  0.35287750     0.16500
O1642       O  0.65142392  0.52158574  0.31177969    -0.60500
H1643       H  0.66175680  0.51071384  0.29702874     0.43500
H1644       H  0.63510596  0.93162313  0.40364029     0.43400
C1645       C  0.88365882  0.51388579  0.16122411    -0.05600
C1646       C  0.85719569  0.01164130  0.16635037    -0.33100
C1647       C  0.83568263  0.01052814  0.14560943     0.36200
C1648       C  0.84207542  0.01573483  0.11690083    -0.06000
C1649       C  0.85678278  0.53502975  0.12236680    -0.33000
C1650       C  0.87769633  0.53728216  0.14349514     0.36100
H1651       H  0.85215812  0.00719466  0.18823658     0.16500
O1652       O  0.80869182  0.00379430  0.15355313    -0.60400
H1653       H  0.85315030  0.55295233  0.10832127     0.16500
O1654       O  0.89317528  0.56192854  0.14573853    -0.60500
H1655       H  0.90893151  0.55954625  0.13216255     0.43500
H1656       H  0.79948090  0.02237819  0.15780916     0.43400
C1657       C  0.49074898  0.41677980  0.12774029    -0.05600
C1658       C  0.51463935  0.40788478  0.11278977    -0.33100
C1659       C  0.51286602  0.38580940  0.09272842     0.36200
C1660       C  0.98673980  0.37170710  0.08750950    -0.06000
C1661       C  0.96272142  0.38109473  0.10235032    -0.33000
C1662       C  0.96460544  0.40335756  0.12229764     0.36100
H1663       H  0.53493817  0.41778281  0.11704180     0.16500
O1664       O  0.53710698  0.37785107  0.07891603    -0.60400
H1665       H  0.94255206  0.37059380  0.09917875     0.16500
O1666       O  0.94104255  0.41085973  0.13744394    -0.60500
H1667       H  0.94167888  0.39871712  0.15461779     0.43500
H1668       H  0.54686608  0.36426496  0.09182905     0.43400
C1669       C  0.50749069  0.12890191  0.41194748    -0.05600
C1670       C  0.98169451  0.11980107  0.39986903    -0.33100
C1671       C  0.98074321  0.09692945  0.38074742     0.36200
C1672       C  0.00575463  0.08219744  0.37364345    -0.06000
C1673       C  0.53116162  0.08964042  0.38744766    -0.33000
C1674       C  0.53225137  0.11306791  0.40614496     0.36100
H1675       H  0.96227704  0.13143053  0.40401348     0.16500
O1676       O  0.95544665  0.09010866  0.36799064    -0.60400
H1677       H  0.55063354  0.07857514  0.38223147     0.16500
O1678       O  0.55764360  0.12047849  0.41831689    -0.60500
H1679       H  0.56772905  0.13144621  0.40359654     0.42700
H1680       H  0.94742291  0.07467946  0.37976324     0.43400
O1681       O  0.97434613  0.03074683  0.71320379    -0.88500
C1682       C  0.95928073  0.01775438  0.79736818     0.87500
Mg1683     Mg  0.97623228  0.49581933  0.68266236     1.58100
O1684       O  0.52982587  0.03516245  0.78104057    -0.88200
O1685       O  0.99947403  0.06671178  0.72889926    -0.75600
C1686       C  0.56732814  0.40450171  0.74050937     0.92600
O1687       O  0.93746992  0.48218983  0.74066205    -0.75400
O1688       O  0.54625657  0.40528831  0.72356690    -0.82900
Mg1689     Mg  0.93766381  0.03068699  0.74052351     1.58000
C1690       C  0.59501412  0.98616195  0.81889077     0.92500
O1691       O  0.93212798  0.08000464  0.74099311    -0.81100
H1692       H  0.55831674  0.06165894  0.76452399    -0.06500
C1693       C  0.51708842  0.45250110  0.78950103     0.87400
O1694       O  0.52511824  0.49702488  0.68380248    -0.75700
O1695       O  0.96614540  0.03148739  0.77625169    -0.88400
O1696       O  0.57437402  0.00235847  0.82571025    -0.81200
C1697       C  0.00821683  0.06482177  0.84740626     0.92600
C1698       C  0.93824053  0.09993058  0.75851741     0.92500
Mg1699     Mg  0.56710660  0.47428879  0.75690250     1.58000
O1700       O  0.57324881  0.42534891  0.75697420    -0.81200
O1701       O  0.56652284  0.01962595  0.75745474    -0.75400
O1702       O  0.99361625  0.07157076  0.82563742    -0.81200
O1703       O  0.90702787  0.02927403  0.70294804    -0.82900
O1704       O  0.51028903  0.42989429  0.67218185    -0.81300
C1705       C  0.55181160  0.03982324  0.76786694     0.86900
O1706       O  0.53851681  0.47238603  0.72093455    -0.88400
O1707       O  0.53118455  0.47405891  0.78458634    -0.88500
O1708       O  0.50698774  0.43716224  0.76961118    -0.75600
Mg1709     Mg  0.99580227  0.06603042  0.77755100     1.58000
O1710       O  0.52437856  0.04296659  0.84771200    -0.82900
H1711       H  0.99387596  0.05767874  0.68711367    -0.06700
O1712       O  0.97503821  0.46731667  0.71813017    -0.88200
H1713       H  0.94720562  0.44025237  0.73487534    -0.06500
H1714       H  0.56629325  0.48994676  0.69450210    -0.06700
C1715       C  0.95307622  0.46220869  0.73114876     0.86900
C1716       C  0.98912307  0.05194400  0.70871660     0.87500
C1717       C  0.54433495  0.48632245  0.69958366     0.87500
H1718       H  0.51278234  0.44687108  0.81122768    -0.06600
O1719       O  0.97769220  0.00630845  0.81351574    -0.75700
Mg1720     Mg  0.50955778  0.43696694  0.72082238     1.58000
H1721       H  0.93707857  0.01492117  0.80188219    -0.06700
C1722       C  0.90718341  0.51203901  0.68063204     0.92500
O1723       O  0.97754826  0.45795988  0.65244560    -0.82900
C1724       C  0.49334610  0.43593891  0.65187574     0.92600
O1725       O  0.95955058  0.09825246  0.77507400    -0.82900
Mg1726     Mg  0.52641120  0.00573501  0.81609458     1.58200
O1727       O  0.92801850  0.49550371  0.67550917    -0.81200
O1728       O  0.59718425  0.47574176  0.79497523    -0.82900
O1729       O  0.49280361  0.27211475  0.54818121    -0.88500
C1730       C  0.93086434  0.25993824  0.98953603     0.87500
Mg1731     Mg  0.52906722  0.29767913  0.53881131     1.58100
O1732       O  0.97724728  0.20156129  0.49839600    -0.88200
O1733       O  0.98358221  0.22814732  0.56016702    -0.75600
C1734       C  0.57884029  0.25539858  0.91629206     0.92600
O1735       O  0.97002987  0.31681938  0.50137999    -0.75400
O1736       O  0.57434902  0.27788840  0.93076093    -0.82900
Mg1737     Mg  0.95213500  0.29147309  0.53884495     1.58000
C1738       C  0.50850980  0.15757715  0.92807015     0.92500
O1739       O  0.92823430  0.27040209  0.57620353    -0.81100
H1740       H  0.49321221  0.17078557  0.52311202    -0.06500
C1741       C  0.99465007  0.25159923  0.93071298     0.87400
O1742       O  0.55563380  0.25796219  0.52787112    -0.75700
O1743       O  0.94317540  0.25527195  0.51144036    -0.88400
O1744       O  0.98529051  0.16529067  0.93941254    -0.81200
C1745       C  0.90858522  0.17585101  0.98681534     0.92600
C1746       C  0.91415423  0.24760595  0.58063051     0.92500
Mg1747     Mg  0.53966392  0.21228963  0.95730135     1.58000
O1748       O  0.56492867  0.23245121  0.92042929    -0.81200
O1749       O  0.52129397  0.18731786  0.99460317    -0.75400
O1750       O  0.91007120  0.19385860  0.50646580    -0.81200
O1751       O  0.96283055  0.32999763  0.56770701    -0.82900
O1752       O  0.57981730  0.31103783  0.98780938    -0.81300
C1753       C  0.49662990  0.18547499  0.50587117     0.86900
O1754       O  0.54763543  0.24885618  0.98391665    -0.88400
O1755       O  0.99870580  0.23104691  0.94654938    -0.88500
O1756       O  0.50737257  0.27510180  0.93454075    -0.75600
Mg1757     Mg  0.94762957  0.21355682  0.53066623     1.58000
O1758       O  0.92556231  0.17639973  0.96608551    -0.82900
H1759       H  0.51241729  0.25290618  0.58064216    -0.06700
O1760       O  0.51363046  0.30223322  0.99663342    -0.88200
H1761       H  0.99678636  0.33305781  0.97252179    -0.06500
H1762       H  0.57513223  0.22572330  0.50668940    -0.06700
C1763       C  0.99391035  0.31820592  0.98973249     0.86900
C1764       C  0.49674019  0.25143479  0.56389359     0.87500
C1765       C  0.56015400  0.24322613  0.50570585     0.87500
H1766       H  0.97916487  0.24984236  0.91380978    -0.06600
O1767       O  0.93557603  0.24499593  0.96748118    -0.75700
Mg1768     Mg  0.54294599  0.29027727  0.96417665     1.58000
H1769       H  0.91590206  0.27744092  0.98827696    -0.06700
C1770       C  0.98513275  0.34535803  0.56827227     0.92500
O1771       O  0.56711109  0.32558054  0.52937423    -0.82900
C1772       C  0.58378525  0.32545582  0.50839592     0.92600
O1773       O  0.91690268  0.22562077  0.56497330    -0.82900
Mg1774     Mg  0.96250172  0.20532746  0.95595451     1.58200
O1775       O  0.50708981  0.33823112  0.55446970    -0.81200
O1776       O  0.53068090  0.17296649  0.92974301    -0.82900
O1777       O  0.77298003  0.19945843  0.75615450    -0.88500
C1778       C  0.75663812  0.25735063  0.81849153     0.87500
Mg1779     Mg  0.79898282  0.21057690  0.72108549     1.58100
O1780       O  0.70092866  0.24765187  0.76894612    -0.88200
O1781       O  0.72942212  0.18589414  0.76269496    -0.75600
C1782       C  0.75618693  0.33555729  0.67363973     0.92600
O1783       O  0.81508782  0.24730870  0.78167835    -0.75400
O1784       O  0.77855760  0.32127451  0.67857020    -0.82900
Mg1785     Mg  0.79036579  0.20854471  0.79772004     1.58000
C1786       C  0.65708431  0.32024927  0.73943739     0.92500
O1787       O  0.76945147  0.17041873  0.82055755    -0.81100
H1788       H  0.67143914  0.22305158  0.75068408    -0.06500
C1789       C  0.74902850  0.31806378  0.75611202     0.87400
O1790       O  0.76022761  0.22147839  0.69346305    -0.75700
O1791       O  0.75303159  0.23463999  0.80552225    -0.88400
O1792       O  0.66363486  0.30669651  0.76190403    -0.81200
C1793       C  0.67275744  0.25848046  0.83787232     0.92600
C1794       C  0.74619256  0.16535508  0.83323662     0.92500
Mg1795     Mg  0.71238711  0.29227596  0.70893152     1.58000
O1796       O  0.73290438  0.33048349  0.68618761    -0.81200
O1797       O  0.68754020  0.25354164  0.72502155    -0.75400
O1798       O  0.68856015  0.23655203  0.83486125    -0.81200
O1799       O  0.83043215  0.18100367  0.78805609    -0.82900
O1800       O  0.81339548  0.26514490  0.67245628    -0.81300
C1801       C  0.68588415  0.24075225  0.74858131     0.86900
O1802       O  0.74948219  0.26632258  0.70156991    -0.88400
O1803       O  0.72943056  0.30159114  0.75060877    -0.88500
O1804       O  0.77301921  0.31518303  0.74466391    -0.75600
Mg1805     Mg  0.71215352  0.21437984  0.79818557     1.58000
O1806       O  0.67428392  0.27963586  0.82124723    -0.82900
H1807       H  0.75613107  0.16635137  0.73526312    -0.06700
O1808       O  0.80135362  0.25341842  0.73788073    -0.88200
H1809       H  0.83102223  0.27788407  0.75602632    -0.06500
H1810       H  0.72868806  0.24267309  0.67293301    -0.06700
C1811       C  0.81657470  0.26019106  0.75815998     0.86900
C1812       C  0.75328815  0.18298189  0.75095458     0.87500
C1813       C  0.74560793  0.24374845  0.68845761     0.87500
H1814       H  0.74600052  0.33459416  0.77187312    -0.06600
O1815       O  0.74173296  0.27943048  0.81334758    -0.75700
Mg1816     Mg  0.79015531  0.28684377  0.70907066     1.58000
H1817       H  0.77344108  0.25868496  0.83412322    -0.06700
C1818       C  0.84611725  0.18144582  0.76606050     0.92500
O1819       O  0.82737167  0.22145646  0.68427127    -0.82900
C1820       C  0.82856463  0.24305695  0.66813687     0.92600
O1821       O  0.72379613  0.17978741  0.82873044    -0.82900
Mg1822     Mg  0.70314728  0.29059582  0.78529959     1.58200
O1823       O  0.83869304  0.19510499  0.74397093    -0.81200
O1824       O  0.67297886  0.31982105  0.71770185    -0.82900
O1825       O  0.79304050  0.47672165  0.53091864    -0.88500
C1826       C  0.70690099  0.47573453  0.54148810     0.87500
Mg1827     Mg  0.81667909  0.01711627  0.52235202     1.58100
O1828       O  0.72913240  0.45141404  0.97447394    -0.88200
O1829       O  0.78501217  0.43528180  0.51069573    -0.75600
C1830       C  0.74274048  0.08332833  0.92377757     0.92600
O1831       O  0.75598802  0.02788710  0.56112107    -0.75400
O1832       O  0.75825187  0.08765252  0.94537610    -0.82900
Mg1833     Mg  0.76454797  0.47608772  0.56597369     1.58000
C1834       C  0.68523463  0.48542438  0.90302141     0.92500
O1835       O  0.77499589  0.42948089  0.57586038    -0.81100
H1836       H  0.75068430  0.42400746  0.95013745    -0.06500
C1837       C  0.70211515  0.03653230  0.98140383     0.87400
O1838       O  0.81381545  0.00888341  0.97470480    -0.75700
O1839       O  0.73057371  0.46553904  0.53699084    -0.88400
O1840       O  0.68104666  0.46921813  0.92433458    -0.81200
C1841       C  0.66873647  0.41338958  0.49902368     0.92600
C1842       C  0.75901961  0.40775650  0.57511906     0.92500
Mg1843     Mg  0.73794333  0.01312214  0.93289128     1.58000
O1844       O  0.72993500  0.05978114  0.91973070    -0.81200
O1845       O  0.75106126  0.46505488  0.93635915    -0.75400
O1846       O  0.69030675  0.41276092  0.51536431    -0.81200
O1847       O  0.80038347  0.48671127  0.59577331    -0.82900
O1848       O  0.81310504  0.07709101  0.97910497    -0.81300
C1849       C  0.74363413  0.44574774  0.95354535     0.86900
O1850       O  0.77240191  0.02436617  0.96059945    -0.88400
O1851       O  0.70997729  0.01475477  0.96876470    -0.88500
O1852       O  0.71951214  0.05539353  0.98988474    -0.75600
Mg1853     Mg  0.73678993  0.42706948  0.51320344     1.58000
O1854       O  0.66549046  0.43396722  0.98077002    -0.82900
H1855       H  0.82421681  0.45250163  0.51521462    -0.06700
O1856       O  0.77685879  0.03942326  0.52179819    -0.88200
H1857       H  0.75689977  0.06831128  0.54579311    -0.06500
H1858       H  0.80067018  0.00805351  0.93364943    -0.06700
C1859       C  0.76335718  0.04629644  0.54303311     0.86900
C1860       C  0.80179387  0.45485587  0.51901443     0.87500
C1861       C  0.79574089  0.01378506  0.95526715     0.87500
H1862       H  0.67991644  0.03913683  0.98619028    -0.06600
O1863       O  0.68961447  0.48069775  0.52134475    -0.75700
Mg1864     Mg  0.76715104  0.06303221  0.98467414     1.58000
H1865       H  0.70092905  0.48094177  0.56296070    -0.06700
C1866       C  0.82166223  0.01085071  0.59337505     0.92500
O1867       O  0.83982288  0.05896751  0.51383921    -0.82900
C1868       C  0.83511007  0.07761059  0.99476215     0.92600
O1869       O  0.74248498  0.40310153  0.55430498    -0.82900
Mg1870     Mg  0.68966623  0.47480727  0.97321501     1.58200
O1871       O  0.82591256  0.02368082  0.56998547    -0.81200
O1872       O  0.70176489  0.00139806  0.90383161    -0.82900
C1873       C  0.75665334  0.35658064  0.65041059    -0.05600
C1874       C  0.73220874  0.36031235  0.63371565    -0.33100
C1875       C  0.73305215  0.37593125  0.60857053     0.36200
C1876       C  0.75853168  0.38872648  0.59996916    -0.06000
C1877       C  0.78276127  0.38584993  0.61715848    -0.33000
C1878       C  0.78203471  0.36976161  0.64205956     0.36100
H1879       H  0.71253275  0.35020104  0.63958594     0.16500
O1880       O  0.70852566  0.37954205  0.59320038    -0.60400
H1881       H  0.80238670  0.39600957  0.61120461     0.16500
O1882       O  0.80634117  0.36680768  0.65788841    -0.60500
H1883       H  0.80577992  0.38266631  0.67186800     0.43500
H1884       H  0.70706241  0.36231029  0.58099371     0.43400
C1885       C  0.74549778  0.14346974  0.85558090    -0.05600
C1886       C  0.72082946  0.12741324  0.85985788    -0.33100
C1887       C  0.71907635  0.10821949  0.88247711     0.36200
C1888       C  0.74200855  0.10534064  0.90152008    -0.06000
C1889       C  0.76623570  0.12213145  0.89770408    -0.33000
C1890       C  0.76822416  0.14080241  0.87486516     0.36100
H1891       H  0.70290197  0.12972412  0.84557408     0.16500
O1892       O  0.69490646  0.09250063  0.88577811    -0.60400
H1893       H  0.78416031  0.12025380  0.91207059     0.16500
O1894       O  0.79193123  0.15740807  0.87242439    -0.60500
H1895       H  0.80611917  0.14503445  0.86296902     0.43500
H1896       H  0.68328433  0.10350744  0.89943679     0.43400
C1897       C  0.85465818  0.10205293  0.99184306    -0.05600
C1898       C  0.86570303  0.11479430  0.01644001    -0.33100
C1899       C  0.88176435  0.13976667  0.01504779     0.36200
C1900       C  0.88775350  0.15228237  0.98857773    -0.06000
C1901       C  0.87673796  0.13950702  0.96386545    -0.33000
C1902       C  0.85990960  0.11489167  0.96538963     0.36100
H1903       H  0.86130773  0.10571636  0.03701788     0.16500
O1904       O  0.89208036  0.15133860  0.03978677    -0.60400
H1905       H  0.88127518  0.14856126  0.94331769     0.16500
O1906       O  0.84882835  0.10350191  0.94090574    -0.60500
H1907       H  0.86545213  0.08792549  0.43480347     0.43500
H1908       H  0.91071363  0.14197768  0.04292244     0.43400
C1909       C  0.60705108  0.34645010  0.50691372    -0.05600
C1910       C  0.61351050  0.35797325  0.48030152    -0.33100
C1911       C  0.63313679  0.37995761  0.47763414     0.36200
C1912       C  0.64715463  0.39077797  0.50179968    -0.06000
C1913       C  0.64140641  0.37874268  0.52841418    -0.33000
C1914       C  0.62123688  0.35697160  0.53113009     0.36100
H1915       H  0.60267859  0.35045780  0.46138037     0.16500
O1916       O  0.63856185  0.39057215  0.45118338    -0.60400
H1917       H  0.65225689  0.38653427  0.54720555     0.16500
O1918       O  0.61551221  0.34626222  0.55745150    -0.60500
H1919       H  0.62801831  0.33137074  0.06092275     0.43500
H1920       H  0.65381121  0.37823184  0.44349973     0.43400
C1921       C  0.60223689  0.25578803  0.89539232    -0.05600
C1922       C  0.61266258  0.28213987  0.88585999    -0.33100
C1923       C  0.63627887  0.28350361  0.86819563     0.36200
C1924       C  0.65022387  0.25821085  0.85965834    -0.06000
C1925       C  0.64017439  0.23189218  0.86963792    -0.33000
C1926       C  0.61636547  0.23050045  0.88709195     0.36100
H1927       H  0.60250906  0.30192941  0.89219562     0.16500
O1928       O  0.64536363  0.30974570  0.85929000    -0.60400
H1929       H  0.65032718  0.21210742  0.86328338     0.16500
O1930       O  0.60780678  0.20433303  0.89670813    -0.60500
H1931       H  0.59562375  0.19644472  0.88138066     0.43500
H1932       H  0.66011102  0.31551888  0.87322259     0.43400
C1933       C  0.89304694  0.24670068  0.60385687    -0.05600
C1934       C  0.88272042  0.22016349  0.61309186    -0.33100
C1935       C  0.86143688  0.21853184  0.63351878     0.36200
C1936       C  0.84965099  0.24371705  0.64498098    -0.06000
C1937       C  0.85984594  0.27023989  0.63566467    -0.33000
C1938       C  0.88147151  0.27189130  0.61562880     0.36100
H1939       H  0.89115111  0.20045701  0.60441624     0.16500
O1940       O  0.85236843  0.19216019  0.64205253    -0.60400
H1941       H  0.85144481  0.28994403  0.64438858     0.16500
O1942       O  0.89037643  0.29832034  0.60708159    -0.60500
H1943       H  0.90514448  0.30397523  0.62104779     0.43500
H1944       H  0.83558616  0.18795669  0.63000763     0.43400
C1945       C  0.87280208  0.16410967  0.76458247    -0.05600
C1946       C  0.88505352  0.15243326  0.78920987    -0.33100
C1947       C  0.90785031  0.13306477  0.78755352     0.36200
C1948       C  0.91851301  0.12455967  0.76095131    -0.06000
C1949       C  0.90718431  0.13704620  0.73646425    -0.33000
C1950       C  0.88504765  0.15699927  0.73804698     0.36100
H1951       H  0.87640272  0.15760922  0.80978656     0.16500
O1952       O  0.91843825  0.12127450  0.81202005    -0.60400
H1953       H  0.91505900  0.13073545  0.71585706     0.16500
O1954       O  0.87438432  0.16784396  0.71317436    -0.60500
H1955       H  0.88627814  0.18470396  0.70900329     0.43500
H1956       H  0.90680430  0.10403632  0.81531991     0.43400
C1957       C  0.63128844  0.33865616  0.73989205    -0.05600
C1958       C  0.61760042  0.34659797  0.71455673    -0.33100
C1959       C  0.59541587  0.36671560  0.71462961     0.36200
C1960       C  0.58680896  0.37957893  0.74027771    -0.06000
C1961       C  0.59987638  0.37101153  0.76561978    -0.33000
C1962       C  0.62158306  0.35058242  0.76568674     0.36100
H1963       H  0.62461696  0.33779282  0.69454001     0.16500
O1964       O  0.58342520  0.37482905  0.68933107    -0.60400
H1965       H  0.59378004  0.38084205  0.78549472     0.16500
O1966       O  0.63461413  0.34419513  0.79097812    -0.60500
H1967       H  0.62280746  0.32909447  0.79955153     0.43500
H1968       H  0.59527075  0.39079555  0.68251771     0.43400
C1969       C  0.61893305  0.98327915  0.83888945    -0.05600
C1970       C  0.61695113  0.96370846  0.86118464    -0.33100
C1971       C  0.63810920  0.96203578  0.88212935     0.36200
C1972       C  0.66457108  0.48615711  0.87922536    -0.06000
C1973       C  0.65345819  0.51285569  0.87115864    -0.33000
C1974       C  0.63221622  0.51505683  0.85042288     0.36100
H1975       H  0.59852778  0.95010504  0.86272962     0.16500
O1976       O  0.63477060  0.94313367  0.90395923    -0.60400
H1977       H  0.66062635  0.53214075  0.88174062     0.16500
O1978       O  0.62119238  0.54145485  0.84411442    -0.60500
H1979       H  0.63234290  0.54832093  0.82781555     0.43500
H1980       H  0.64464944  0.92546176  0.89780279     0.43400
C1981       C  0.88244716  0.51095879  0.66129605    -0.05600
C1982       C  0.85678398  0.00974911  0.66652170    -0.33100
C1983       C  0.83552062  0.00903444  0.64550529     0.36200
C1984       C  0.84212804  0.01530385  0.61703920    -0.06000
C1985       C  0.84933408  0.53443448  0.62892118    -0.33000
C1986       C  0.87050059  0.53613109  0.64990955     0.36100
H1987       H  0.85160010  0.00435798  0.68815842     0.16500
O1988       O  0.80857719  0.00153428  0.65292244    -0.60400
H1989       H  0.84098344  0.55392785  0.61971873     0.16500
O1990       O  0.88032682  0.56244713  0.65812191    -0.60500
H1991       H  0.89615378  0.56662458  0.64512359     0.43500
H1992       H  0.79884533  0.01983547  0.65722425     0.43400
C1993       C  0.49079723  0.41566028  0.62786593    -0.05600
C1994       C  0.51512448  0.40522697  0.61464263    -0.33100
C1995       C  0.51338884  0.38354625  0.59415127     0.36200
C1996       C  0.98685774  0.37122244  0.58689944    -0.06000
C1997       C  0.96240800  0.38230403  0.59977916    -0.33000
C1998       C  0.96422499  0.40439047  0.61994960     0.36100
H1999       H  0.53569135  0.41361000  0.62057560     0.16500
O2000       O  0.53801828  0.37409865  0.58201789    -0.60400
H2001       H  0.94185616  0.37333146  0.59480462     0.16500
O2002       O  0.93999372  0.41384417  0.63284019    -0.60500
H2003       H  0.93811304  0.40187442  0.65001010     0.43500
H2004       H  0.54576168  0.35957044  0.59525558     0.43400
C2005       C  0.50853237  0.13095397  0.91074109    -0.05600
C2006       C  0.98293843  0.12183111  0.89829347    -0.33100
C2007       C  0.98232567  0.09917547  0.87891213     0.36200
C2008       C  0.00747131  0.08459415  0.87195416    -0.06000
C2009       C  0.53279500  0.09237140  0.88571190    -0.33000
C2010       C  0.53355861  0.11565652  0.90461233     0.36100
H2011       H  0.96338235  0.13319960  0.90248952     0.16500
O2012       O  0.95716334  0.09226647  0.86593978    -0.60400
H2013       H  0.55239107  0.08155060  0.88046338     0.16500
O2014       O  0.55887512  0.12338185  0.91675273    -0.60500
H2015       H  0.56848237  0.13510722  0.90228359     0.42700
H2016       H  0.94927968  0.07653105  0.87740746     0.43400
O2017       O  0.97523753  0.53329218  0.21099069    -0.88500
C2018       C  0.96186851  0.51884942  0.29496879     0.87500
Mg2019     Mg  0.97765362  0.99939281  0.18203970     1.58100
O2020       O  0.53182640  0.53841166  0.27852701    -0.88200
O2021       O  0.00011616  0.56942230  0.22686137    -0.75600
C2022       C  0.56686341  0.90506686  0.23797944     0.92600
O2023       O  0.93770836  0.98262849  0.23927405    -0.75400
O2024       O  0.54617073  0.90651471  0.22059649    -0.82900
Mg2025     Mg  0.93919309  0.53322579  0.23858945     1.58000
C2026       C  0.59896027  0.49064651  0.31553171     0.92500
O2027       O  0.93326833  0.58263112  0.23923931    -0.81100
H2028       H  0.55943620  0.56592358  0.26214116    -0.06500
C2029       C  0.51616551  0.95079068  0.28744103     0.87400
O2030       O  0.52643947  0.99986553  0.18391571    -0.75700
O2031       O  0.96790132  0.53357975  0.27424020    -0.88400
O2032       O  0.57787627  0.50607122  0.32283849    -0.81200
C2033       C  0.00978489  0.56653162  0.34554044     0.92600
C2034       C  0.93858130  0.60188144  0.25773838     0.92500
Mg2035     Mg  0.56679896  0.97457870  0.25652454     1.58000
O2036       O  0.57300909  0.92561636  0.25474993    -0.81200
O2037       O  0.56875383  0.52422043  0.25450722    -0.75400
O2038       O  0.99492994  0.57334039  0.32396160    -0.81200
O2039       O  0.90908466  0.53239311  0.20075896    -0.82900
O2040       O  0.51147495  0.93389877  0.16939759    -0.81300
C2041       C  0.55356770  0.54386594  0.26526032     0.86900
O2042       O  0.53875386  0.97384314  0.22036275    -0.88400
O2043       O  0.53024817  0.97261231  0.28375366    -0.88500
O2044       O  0.50628083  0.93645523  0.26674032    -0.75600
Mg2045     Mg  0.99691359  0.56852106  0.27574968     1.58000
O2046       O  0.52659420  0.54518785  0.34530684    -0.82900
H2047       H  0.99472455  0.56039797  0.18501076    -0.06700
O2048       O  0.97538901  0.96915212  0.21612986    -0.88200
H2049       H  0.94753139  0.94112658  0.23117920    -0.06500
H2050       H  0.56730875  0.99177278  0.19503272    -0.06700
C2051       C  0.95334227  0.96328030  0.22866330     0.86900
C2052       C  0.98997825  0.55455726  0.20658745     0.87500
C2053       C  0.54520331  0.98834929  0.19961363     0.87500
H2054       H  0.51159454  0.94410853  0.30880951    -0.06600
O2055       O  0.98089695  0.50767089  0.31061257    -0.75700
Mg2056     Mg  0.50975477  0.93858490  0.21818544     1.58000
H2057       H  0.93986016  0.51490833  0.29958295    -0.06700
C2058       C  0.90851505  0.01605891  0.17962247     0.92500
O2059       O  0.97854271  0.96243513  0.15065265    -0.82900
C2060       C  0.49400580  0.94018750  0.14962589     0.92600
O2061       O  0.95980340  0.59998921  0.27437413    -0.82900
Mg2062     Mg  0.52967320  0.50851371  0.31330582     1.58200
O2063       O  0.93026864  0.00138960  0.17321180    -0.81200
O2064       O  0.59692890  0.97541533  0.29443792    -0.82900
O2065       O  0.49177524  0.77259701  0.05100005    -0.88500
C2066       C  0.93030654  0.75770940  0.49121848     0.87500
Mg2067     Mg  0.52804574  0.79816345  0.04234525     1.58100
O2068       O  0.97717617  0.70191062  0.00040623    -0.88200
O2069       O  0.98291466  0.72841961  0.06253262    -0.75600
C2070       C  0.57778992  0.75441023  0.41770829     0.92600
O2071       O  0.96950797  0.81715981  0.00373443    -0.75400
O2072       O  0.57333784  0.77688259  0.43220740    -0.82900
Mg2073     Mg  0.95118674  0.79191896  0.04096937     1.58000
C2074       C  0.50878327  0.65609083  0.42977605     0.92500
O2075       O  0.92705252  0.77068348  0.07784369    -0.81100
H2076       H  0.49293487  0.67058907  0.02456797    -0.06500
C2077       C  0.99399989  0.74949911  0.43259759     0.87400
O2078       O  0.55488436  0.75854614  0.03161429    -0.75700
O2079       O  0.94283272  0.75546558  0.01366180    -0.88400
O2080       O  0.98561172  0.66304126  0.44169095    -0.81200
C2081       C  0.90923581  0.67363418  0.48989117     0.92600
C2082       C  0.91314993  0.74775870  0.08214927     0.92500
Mg2083     Mg  0.53950522  0.71102510  0.45927096     1.58000
O2084       O  0.56415609  0.73135785  0.42212804    -0.81200
O2085       O  0.52158800  0.68588277  0.49678074    -0.75400
O2086       O  0.91029895  0.69338618  0.00825230    -0.81200
O2087       O  0.96094298  0.83130894  0.06954806    -0.82900
O2088       O  0.57851924  0.81124847  0.48882869    -0.81300
C2089       C  0.49648903  0.68567098  0.00769180     0.86900
O2090       O  0.54724739  0.74786303  0.48577145    -0.88400
O2091       O  0.99832677  0.72913246  0.44858245    -0.88500
O2092       O  0.50651824  0.77314556  0.43618783    -0.75600
Mg2093     Mg  0.94739902  0.71365176  0.03268716     1.58000
O2094       O  0.92620924  0.67375693  0.46915871    -0.82900
H2095       H  0.51111842  0.75338233  0.08361090    -0.06700
O2096       O  0.51254460  0.80093969  0.49786284    -0.88200
H2097       H  0.99556073  0.83136345  0.47335079    -0.06500
H2098       H  0.57457634  0.72638755  0.01047859    -0.06700
C2099       C  0.99273643  0.81669448  0.49072387     0.86900
C2100       C  0.49568806  0.75185500  0.06663918     0.87500
C2101       C  0.55966705  0.74394495  0.00941077     0.87500
H2102       H  0.97848362  0.74744062  0.41575678    -0.06600
O2103       O  0.93515069  0.74243966  0.46942356    -0.75700
Mg2104     Mg  0.54196402  0.78913875  0.46559077     1.58000
H2105       H  0.91510822  0.77498260  0.48970143    -0.06700
C2106       C  0.98340606  0.84647132  0.07007444     0.92500
O2107       O  0.56583780  0.82654319  0.03385928    -0.82900
C2108       C  0.58291842  0.82688095  0.01324932     0.92600
O2109       O  0.91635123  0.72566829  0.06670920    -0.82900
Mg2110     Mg  0.96256005  0.70300950  0.45833870     1.58200
O2111       O  0.50569726  0.83825956  0.05753650    -0.81200
O2112       O  0.53071211  0.67180524  0.43157632    -0.82900
O2113       O  0.77221033  0.70035747  0.25729549    -0.88500
C2114       C  0.75494723  0.75823820  0.31945292     0.87500
Mg2115     Mg  0.79814643  0.71145527  0.22222015     1.58100
O2116       O  0.69958197  0.74762195  0.26962924    -0.88200
O2117       O  0.72887249  0.68616730  0.26391576    -0.75600
C2118       C  0.75485662  0.83694086  0.17514503     0.92600
O2119       O  0.81382484  0.74863076  0.28264690    -0.75400
O2120       O  0.77727726  0.82255501  0.17960569    -0.82900
Mg2121     Mg  0.78948570  0.70967193  0.29881990     1.58000
C2122       C  0.65516524  0.81960354  0.23927202     0.92500
O2123       O  0.76894730  0.67138075  0.32172177    -0.81100
H2124       H  0.67083708  0.72250420  0.25086538    -0.06500
C2125       C  0.74727146  0.81841892  0.25696286     0.87400
O2126       O  0.75942845  0.72204284  0.19447381    -0.75700
O2127       O  0.75178045  0.73546162  0.30647516    -0.88400
O2128       O  0.66156588  0.80630860  0.26194637    -0.81200
C2129       C  0.67085472  0.75838336  0.33834444     0.92600
C2130       C  0.74589597  0.66613045  0.33469626     0.92500
Mg2131     Mg  0.71123247  0.79241728  0.20951360     1.58000
O2132       O  0.73156184  0.83119676  0.18739405    -0.81200
O2133       O  0.68683638  0.75325830  0.22543813    -0.75400
O2134       O  0.68705870  0.73672260  0.33555158    -0.81200
O2135       O  0.82991657  0.68231257  0.28928856    -0.82900
O2136       O  0.81206365  0.76587360  0.17331027    -0.81300
C2137       C  0.68501170  0.74045515  0.24899596     0.86900
O2138       O  0.74852157  0.76691418  0.20226703    -0.88400
O2139       O  0.72776708  0.80185354  0.25133791    -0.88500
O2140       O  0.77131330  0.81578359  0.24553310    -0.75600
Mg2141     Mg  0.71116906  0.71461197  0.29920012     1.58000
O2142       O  0.67208776  0.77950177  0.32162807    -0.82900
H2143       H  0.75583731  0.66693610  0.23652535    -0.06700
O2144       O  0.80027014  0.75440038  0.23873364    -0.88200
H2145       H  0.82958972  0.77924546  0.25693782    -0.06500
H2146       H  0.72798832  0.74305141  0.17361662    -0.06700
C2147       C  0.81531427  0.76140892  0.25907010     0.86900
C2148       C  0.75276015  0.68357924  0.25215719     0.87500
C2149       C  0.74481092  0.74425985  0.18923712     0.87500
H2150       H  0.74410661  0.83485618  0.27279101    -0.06600
O2151       O  0.73968485  0.78006122  0.31423158    -0.75700
Mg2152     Mg  0.78890229  0.78773991  0.20989584     1.58000
H2153       H  0.77161663  0.75985024  0.33520100    -0.06700
C2154       C  0.84560123  0.68275364  0.26727678     0.92500
O2155       O  0.82625883  0.72227437  0.18534100    -0.82900
C2156       C  0.82719432  0.74373821  0.16902062     0.92600
O2157       O  0.72330504  0.68031966  0.33023312    -0.82900
Mg2158     Mg  0.70115928  0.79069939  0.28582178     1.58200
O2159       O  0.83800986  0.69630696  0.24517319    -0.81200
O2160       O  0.67146648  0.81930455  0.21785858    -0.82900
O2161       O  0.79258146  0.97901578  0.03134625    -0.88500
C2162       C  0.70637052  0.98071907  0.04462869     0.87500
Mg2163     Mg  0.81822087  0.51556887  0.02345175     1.58100
O2164       O  0.72769028  0.95210766  0.47680543    -0.88200
O2165       O  0.78239441  0.93735483  0.01260675    -0.75600
C2166       C  0.74476732  0.58317632  0.42482247     0.92600
O2167       O  0.75680749  0.52480528  0.06161324    -0.75400
O2168       O  0.75988094  0.58734980  0.44676816    -0.82900
Mg2169     Mg  0.76478098  0.98124973  0.06754427     1.58000
C2170       C  0.68272020  0.98305675  0.40482170     0.92500
O2171       O  0.77338436  0.93479362  0.08029099    -0.81100
H2172       H  0.74932882  0.92430408  0.45298479    -0.06500
C2173       C  0.70308286  0.53386389  0.47921542     0.87400
O2174       O  0.81569950  0.50907307  0.47702764    -0.75700
O2175       O  0.72976310  0.97004424  0.03974469    -0.88400
O2176       O  0.67877274  0.96898682  0.42758779    -0.81200
C2177       C  0.66563479  0.91731738  0.00482454     0.92600
C2178       C  0.75754484  0.91291256  0.07940064     0.92500
Mg2179     Mg  0.74120418  0.51262216  0.43194099     1.58000
O2180       O  0.73240829  0.55950579  0.42014185    -0.81200
O2181       O  0.74899035  0.96490653  0.43797573    -0.75400
O2182       O  0.68731051  0.91702160  0.02108844    -0.81200
O2183       O  0.80129582  0.99346427  0.09667701    -0.82900
O2184       O  0.81302757  0.57632407  0.48334253    -0.81300
C2185       C  0.74201545  0.94603755  0.45584185     0.86900
O2186       O  0.77450997  0.52371300  0.46129515    -0.88400
O2187       O  0.71226576  0.51243425  0.46692113    -0.88500
O2188       O  0.71948688  0.55311380  0.48875950    -0.75600
Mg2189     Mg  0.73418968  0.93058250  0.01702013     1.58000
O2190       O  0.66405475  0.93484516  0.48421737    -0.82900
H2191       H  0.82229023  0.95319722  0.01530377    -0.06700
O2192       O  0.77824539  0.53763371  0.02299773    -0.88200
H2193       H  0.75792952  0.56573397  0.04762899    -0.06500
H2194       H  0.80447508  0.50880283  0.43540085    -0.06700
C2195       C  0.76441367  0.54381633  0.04423683     0.86900
C2196       C  0.80011922  0.95648547  0.01983385     0.87500
C2197       C  0.79837059  0.51387431  0.45686693     0.87500
H2198       H  0.68057392  0.53583920  0.48269883    -0.06600
O2199       O  0.68847696  0.98516467  0.02488193    -0.75700
Mg2200     Mg  0.76723871  0.56159819  0.48614872     1.58000
H2201       H  0.70114878  0.98673621  0.06609841    -0.06700
C2202       C  0.82203898  0.50629136  0.09394794     0.92500
O2203       O  0.84175190  0.55753371  0.01633772    -0.82900
C2204       C  0.83468715  0.57676528  0.49945918     0.92600
O2205       O  0.74104331  0.90806387  0.05858798    -0.82900
Mg2206     Mg  0.68813891  0.97552720  0.47563826     1.58200
O2207       O  0.82630441  0.52113679  0.07175117    -0.81200
O2208       O  0.70578248  0.50141727  0.40151188    -0.82900
C2209       C  0.75532892  0.85918184  0.15299418    -0.05600
C2210       C  0.73062907  0.86444296  0.13711299    -0.33100
C2211       C  0.73135154  0.88129943  0.11276948     0.36200
C2212       C  0.75700267  0.89370654  0.10410990    -0.06000
C2213       C  0.78142080  0.88970358  0.12076785    -0.33000
C2214       C  0.78078043  0.87246733  0.14493379     0.36100
H2215       H  0.71081649  0.85456466  0.14291139     0.16500
O2216       O  0.70659502  0.88639790  0.09819629    -0.60400
H2217       H  0.80114478  0.89968542  0.11484983     0.16500
O2218       O  0.80524577  0.86844413  0.16027232    -0.60500
H2219       H  0.80540980  0.88403340  0.17456048     0.43500
H2220       H  0.70395909  0.86952644  0.08569241     0.43400
C2221       C  0.74570535  0.64417506  0.35715220    -0.05600
C2222       C  0.72059507  0.62947191  0.36329249    -0.33100
C2223       C  0.71957383  0.61005012  0.38579097     0.36200
C2224       C  0.74372319  0.60551913  0.40288645    -0.06000
C2225       C  0.76848716  0.62087457  0.39730520    -0.33000
C2226       C  0.76972698  0.63979020  0.37453998     0.36100
H2227       H  0.70173114  0.63297855  0.35054546     0.16500
O2228       O  0.69488491  0.59574795  0.39094703    -0.60400
H2229       H  0.78731550  0.61761868  0.41019252     0.16500
O2230       O  0.79416392  0.65485146  0.37030735    -0.60500
H2231       H  0.80651728  0.64189726  0.35918151     0.43500
H2232       H  0.68537529  0.60689753  0.40606133     0.43400
C2233       C  0.85464269  0.60073729  0.49638371    -0.05600
C2234       C  0.86628234  0.61335927  0.52076333    -0.33100
C2235       C  0.88286373  0.63793507  0.51890861     0.36200
C2236       C  0.88854518  0.65014203  0.49222263    -0.06000
C2237       C  0.87710265  0.63735774  0.46777298    -0.33000
C2238       C  0.85996020  0.61308828  0.46972837     0.36100
H2239       H  0.86199571  0.60451172  0.54146487     0.16500
O2240       O  0.89395324  0.64943517  0.54335204    -0.60400
H2241       H  0.88151439  0.64616506  0.44709040     0.16500
O2242       O  0.84859166  0.60155019  0.44544448    -0.60500
H2243       H  0.86168524  0.58998218  0.93537903     0.43500
H2244       H  0.91249985  0.63977641  0.54608086     0.43400
C2245       C  0.60539557  0.84878668  0.01216313    -0.05600
C2246       C  0.61122009  0.86110414  0.98578548    -0.33100
C2247       C  0.63013271  0.88374826  0.98340148     0.36200
C2248       C  0.64420260  0.89445565  0.00762751    -0.06000
C2249       C  0.63885753  0.88184252  0.03408315    -0.33000
C2250       C  0.61926132  0.85945479  0.03652546     0.36100
H2251       H  0.60045402  0.85362628  0.96681029     0.16500
O2252       O  0.63488821  0.89504185  0.95709747    -0.60400
H2253       H  0.64963716  0.88957959  0.05293515     0.16500
O2254       O  0.61384902  0.84824088  0.06270853    -0.60500
H2255       H  0.62991218  0.82670488  0.55911789     0.43500
H2256       H  0.65063920  0.88356481  0.94913282     0.43400
C2257       C  0.60077232  0.75501034  0.39636119    -0.05600
C2258       C  0.61147238  0.78148187  0.38744258    -0.33100
C2259       C  0.63483056  0.78301944  0.36946529     0.36200
C2260       C  0.64827908  0.75779679  0.36004953    -0.06000
C2261       C  0.63781616  0.73132711  0.36918439    -0.33000
C2262       C  0.61420432  0.72975697  0.38688044     0.36100
H2263       H  0.60178096  0.80124039  0.39454653     0.16500
O2264       O  0.64423049  0.80936432  0.36121003    -0.60400
H2265       H  0.64750906  0.71160080  0.36198816     0.16500
O2266       O  0.60513275  0.70340474  0.39548281    -0.60500
H2267       H  0.59188093  0.69688132  0.38040983     0.43500
H2268       H  0.65904489  0.81460918  0.37527840     0.43400
C2269       C  0.89166796  0.74691445  0.10495400    -0.05600
C2270       C  0.88120543  0.72042444  0.11413517    -0.33100
C2271       C  0.85973997  0.71892840  0.13436297     0.36200
C2272       C  0.84803113  0.74420305  0.14571073    -0.06000
C2273       C  0.85818934  0.77065939  0.13625175    -0.33000
C2274       C  0.87990990  0.77218420  0.11636566     0.36100
H2275       H  0.88968945  0.70067169  0.10561435     0.16500
O2276       O  0.85044373  0.69262437  0.14285651    -0.60400
H2277       H  0.84974667  0.79041934  0.14481028     0.16500
O2278       O  0.88877096  0.79856899  0.10763880    -0.60500
H2279       H  0.90314355  0.80458752  0.12186634     0.43500
H2280       H  0.83449064  0.68796613  0.12987751     0.43400
C2281       C  0.87243496  0.66548549  0.26571381    -0.05600
C2282       C  0.88347788  0.65169023  0.28983953    -0.33100
C2283       C  0.90627738  0.63232197  0.28769931     0.36200
C2284       C  0.91824073  0.62596441  0.26107289    -0.06000
C2285       C  0.90805966  0.64043625  0.23718772    -0.33000
C2286       C  0.88594665  0.66040192  0.23932580     0.36100
H2287       H  0.87386251  0.65517701  0.31031930     0.16500
O2288       O  0.91566676  0.61850115  0.31158636    -0.60400
H2289       H  0.91695968  0.63583787  0.21657230     0.16500
O2290       O  0.87674558  0.67349658  0.21496360    -0.60500
H2291       H  0.88840876  0.69098332  0.21339297     0.43500
H2292       H  0.90380273  0.60113905  0.31294476     0.43400
C2293       C  0.62909754  0.83767474  0.23895265    -0.05600
C2294       C  0.61726054  0.84694483  0.21312589    -0.33100
C2295       C  0.59554078  0.86754417  0.21254681     0.36200
C2296       C  0.58556964  0.87958801  0.23804045    -0.06000
C2297       C  0.59643085  0.86943769  0.26382043    -0.33000
C2298       C  0.61757887  0.84840996  0.26450406     0.36100
H2299       H  0.62553117  0.83896735  0.19326112     0.16500
O2300       O  0.58545079  0.87699518  0.18689610    -0.60400
H2301       H  0.58904950  0.87848357  0.28361234     0.16500
O2302       O  0.62828975  0.84025439  0.29035050    -0.60500
H2303       H  0.61580935  0.82459117  0.29672036     0.43500
H2304       H  0.59827455  0.89272297  0.18142537     0.43400
C2305       C  0.62265826  0.48715636  0.33582418    -0.05600
C2306       C  0.61948163  0.46811770  0.35841029    -0.33100
C2307       C  0.64062061  0.46510068  0.37921290     0.36200
C2308       C  0.66208542  0.98060707  0.38078149    -0.06000
C2309       C  0.66695452  0.99563936  0.35540799    -0.33000
C2310       C  0.64592202  0.99780628  0.33430790     0.36100
H2311       H  0.60018335  0.45584613  0.36021465     0.16500
O2312       O  0.63589801  0.44693394  0.40138569    -0.60400
H2313       H  0.68681207  0.00659688  0.35222868     0.16500
O2314       O  0.65093481  0.01360651  0.31048897    -0.60500
H2315       H  0.65995130  0.00013302  0.29701390     0.43500
H2316       H  0.64351259  0.42818469  0.39514052     0.43400
C2317       C  0.88524541  0.01717024  0.15867002    -0.05600
C2318       C  0.86808303  0.48871049  0.15802626    -0.33100
C2319       C  0.84679759  0.48655529  0.13731594     0.36200
C2320       C  0.84138047  0.50962585  0.11871307    -0.06000
C2321       C  0.86999250  0.02267501  0.10971788    -0.33000
C2322       C  0.89147033  0.02297177  0.13016844     0.36100
H2323       H  0.87287739  0.47041030  0.17125071     0.16500
O2324       O  0.83293090  0.46103795  0.13415677    -0.60400
H2325       H  0.87557562  0.02666837  0.08787334     0.16500
O2326       O  0.91857379  0.02933156  0.12213714    -0.60500
H2327       H  0.92641992  0.01121940  0.11447084     0.43500
H2328       H  0.81735834  0.46170146  0.14810221     0.43400
C2329       C  0.49028339  0.91970559  0.12598685    -0.05600
C2330       C  0.51384309  0.90999524  0.11106186    -0.33100
C2331       C  0.51151398  0.88740965  0.09164994     0.36200
C2332       C  0.98517374  0.87339362  0.08724324    -0.06000
C2333       C  0.96133787  0.88396121  0.10160709    -0.33000
C2334       C  0.96374644  0.90694481  0.12073915     0.36100
H2335       H  0.53437358  0.91953955  0.11496809     0.16500
O2336       O  0.53548364  0.87884851  0.07770690    -0.60400
H2337       H  0.94095325  0.87378787  0.09880477     0.16500
O2338       O  0.94030655  0.91573706  0.13540844    -0.60500
H2339       H  0.94043881  0.90424777  0.15302260     0.43500
H2340       H  0.54562766  0.86601135  0.09107524     0.43400
C2341       C  0.50902117  0.63014014  0.41147028    -0.05600
C2342       C  0.98359843  0.62148775  0.39832208    -0.33100
C2343       C  0.98331867  0.59976527  0.37787745     0.36200
C2344       C  0.00862295  0.58561473  0.37060215    -0.06000
C2345       C  0.53375947  0.59294294  0.38494159    -0.33000
C2346       C  0.53420315  0.61535344  0.40483588     0.36100
H2347       H  0.96395792  0.63258697  0.40280897     0.16500
O2348       O  0.95834390  0.59334693  0.36429141    -0.60400
H2349       H  0.55347603  0.58247258  0.37946231     0.16500
O2350       O  0.55938509  0.62276101  0.41744704    -0.60500
H2351       H  0.56906954  0.63501441  0.40346623     0.42700
H2352       H  0.95007699  0.57748700  0.37530927     0.43400
O2353       O  0.97386565  0.53168138  0.71156735    -0.88500
C2354       C  0.96044557  0.51859231  0.79590578     0.87500
Mg2355     Mg  0.97664649  0.99586654  0.68340855     1.58100
O2356       O  0.53013652  0.53821674  0.77870397    -0.88200
O2357       O  0.99832965  0.56833870  0.72677274    -0.75600
C2358       C  0.56360958  0.90102141  0.74174340     0.92600
O2359       O  0.93653648  0.98153370  0.74160549    -0.75400
O2360       O  0.54309106  0.90253946  0.72416960    -0.82900
Mg2361     Mg  0.93769435  0.53154256  0.73905047     1.58000
C2362       C  0.59758565  0.49187227  0.81673976     0.92500
O2363       O  0.93108927  0.58092373  0.73937228    -0.81100
H2364       H  0.55773157  0.56542709  0.76179925    -0.06500
C2365       C  0.51364992  0.94966356  0.79026533     0.87400
O2366       O  0.52537629  0.99519574  0.68549428    -0.75700
O2367       O  0.96636937  0.53283378  0.77479817    -0.88400
O2368       O  0.57688740  0.50842926  0.82269585    -0.81200
C2369       C  0.00833433  0.56788916  0.84532470     0.92600
C2370       C  0.93680476  0.60067501  0.75724138     0.92500
Mg2371     Mg  0.56482469  0.97047966  0.75863038     1.58000
O2372       O  0.56937747  0.92142881  0.75878288    -0.81200
O2373       O  0.56732450  0.52356695  0.75536002    -0.75400
O2374       O  0.99317030  0.57394266  0.82373899    -0.81200
O2375       O  0.90757707  0.52977391  0.70111979    -0.82900
O2376       O  0.50857111  0.92905821  0.67248257    -0.81300
C2377       C  0.55192914  0.54343312  0.76542592     0.86900
O2378       O  0.53680097  0.96966836  0.72252068    -0.88400
O2379       O  0.52845785  0.97089244  0.78597969    -0.88500
O2380       O  0.50361844  0.93481929  0.76994995    -0.75600
Mg2381     Mg  0.99521105  0.56805975  0.77558616     1.58000
O2382       O  0.52533144  0.54669502  0.84537993    -0.82900
H2383       H  0.99277858  0.55870098  0.68509046    -0.06700
O2384       O  0.97337099  0.96625116  0.71812316    -0.88200
H2385       H  0.94505661  0.93955741  0.73460610    -0.06500
H2386       H  0.56595758  0.98615477  0.69693159    -0.06700
C2387       C  0.95140544  0.96143910  0.73125124     0.86900
C2388       C  0.98824519  0.55309641  0.70677659     0.87500
C2389       C  0.54374309  0.98347521  0.70148417     0.87500
H2390       H  0.50869546  0.94387060  0.81180409    -0.06600
O2391       O  0.97956845  0.50794881  0.81182349    -0.75700
Mg2392     Mg  0.50710836  0.93510967  0.72117825     1.58000
H2393       H  0.93846654  0.51465060  0.80065547    -0.06700
C2394       C  0.90792899  0.01425273  0.68046263     0.92500
O2395       O  0.97740624  0.95873322  0.65240737    -0.82900
C2396       C  0.49239796  0.93614849  0.65187979     0.92600
O2397       O  0.95822985  0.59919821  0.77361397    -0.82900
Mg2398     Mg  0.52839575  0.50929057  0.81409291     1.58200
O2399       O  0.92932918  0.99900237  0.67414579    -0.81200
O2400       O  0.59485692  0.97116470  0.79640038    -0.82900
O2401       O  0.49210933  0.77193446  0.55035343    -0.88500
C2402       C  0.93028580  0.75993091  0.99100210     0.87500
Mg2403     Mg  0.52810847  0.79773379  0.54083475     1.58100
O2404       O  0.97791853  0.70031738  0.50125472    -0.88200
O2405       O  0.98387768  0.72794612  0.56294130    -0.75600
C2406       C  0.57909207  0.75590792  0.91947206     0.92600
O2407       O  0.96892215  0.81555638  0.50289063    -0.75400
O2408       O  0.57473895  0.77822112  0.93424139    -0.82900
Mg2409     Mg  0.95122199  0.79059031  0.54065898     1.58000
C2410       C  0.50838548  0.65847856  0.92881528     0.92500
O2411       O  0.92712461  0.76976881  0.57807717    -0.81100
H2412       H  0.49457226  0.66975887  0.52580387    -0.06500
C2413       C  0.99480544  0.75227625  0.93293495     0.87400
O2414       O  0.55506912  0.75816852  0.53045514    -0.75700
O2415       O  0.94297672  0.75376423  0.51390785    -0.88400
O2416       O  0.98516052  0.66591248  0.94028975    -0.81200
C2417       C  0.90900902  0.67545877  0.98791006     0.92600
C2418       C  0.91345464  0.74673152  0.58263549     0.92500
Mg2419     Mg  0.53940222  0.71246282  0.95958744     1.58000
O2420       O  0.56499282  0.73303022  0.92326913    -0.81200
O2421       O  0.52065766  0.68687892  0.99632434    -0.75400
O2422       O  0.91107396  0.69174193  0.50999201    -0.81200
O2423       O  0.96139167  0.82983741  0.56888465    -0.82900
O2424       O  0.57966647  0.81070449  0.99174719    -0.81300
C2425       C  0.49761769  0.68454755  0.50857075     0.86900
O2426       O  0.54710006  0.74871962  0.98683875    -0.88400
O2427       O  0.99861333  0.73153744  0.94858615    -0.88500
O2428       O  0.50764380  0.77566009  0.93711461    -0.75600
Mg2429     Mg  0.94825825  0.71236186  0.53363065     1.58000
O2430       O  0.92596160  0.67632066  0.96720466    -0.82900
H2431       H  0.51197506  0.75370432  0.58321112    -0.06700
O2432       O  0.51306875  0.80215327  0.99928416    -0.88200
H2433       H  0.99682426  0.83306791  0.97488244    -0.06500
H2434       H  0.57501153  0.72603851  0.50953625    -0.06700
C2435       C  0.99355067  0.81821747  0.99201735     0.86900
C2436       C  0.49641494  0.75160936  0.56641869     0.87500
C2437       C  0.55994964  0.74345596  0.50834846     0.87500
H2438       H  0.97947313  0.75077951  0.91586871    -0.06600
O2439       O  0.93515381  0.74507412  0.96893867    -0.75700
Mg2440     Mg  0.54292830  0.79035984  0.96735160     1.58000
H2441       H  0.91519487  0.77732131  0.98975431    -0.06700
C2442       C  0.98358629  0.84538044  0.56902777     0.92500
O2443       O  0.56608530  0.82593420  0.53179445    -0.82900
C2444       C  0.58261769  0.82667725  0.51073340     0.92600
O2445       O  0.91720161  0.72447517  0.56758631    -0.82900
Mg2446     Mg  0.96239895  0.70567629  0.95737056     1.58200
O2447       O  0.50554994  0.83814404  0.55534189    -0.81200
O2448       O  0.53063430  0.67367123  0.93115143    -0.82900
O2449       O  0.77235093  0.70059619  0.75814427    -0.88500
C2450       C  0.75607926  0.75925069  0.81994557     0.87500
Mg2451     Mg  0.79754125  0.71104697  0.72234333     1.58100
O2452       O  0.70006947  0.74770697  0.77107774    -0.88200
O2453       O  0.72925250  0.68626086  0.76571147    -0.75600
C2454       C  0.75389632  0.83595211  0.67442708     0.92600
O2455       O  0.81425631  0.74937950  0.78202370    -0.75400
O2456       O  0.77617640  0.82137061  0.67886183    -0.82900
Mg2457     Mg  0.79034779  0.71065930  0.79922658     1.58000
C2458       C  0.65469336  0.81865627  0.74083032     0.92500
O2459       O  0.77044572  0.67268482  0.82291558    -0.81100
H2460       H  0.67107232  0.72230642  0.75310439    -0.06500
C2461       C  0.74733294  0.81828008  0.75664368     0.87400
O2462       O  0.75825898  0.72117776  0.69524393    -0.75700
O2463       O  0.75273781  0.73632750  0.80727040    -0.88400
O2464       O  0.66172630  0.80539750  0.76331487    -0.81200
C2465       C  0.67232689  0.75924113  0.84021780     0.92600
C2466       C  0.74748747  0.66719080  0.83590982     0.92500
Mg2467     Mg  0.71042031  0.79191462  0.71008072     1.58000
O2468       O  0.73058038  0.83052333  0.68686627    -0.81200
O2469       O  0.68644489  0.75287434  0.72705981    -0.75400
O2470       O  0.68850082  0.73756017  0.83741661    -0.81200
O2471       O  0.83046898  0.68331365  0.78934789    -0.82900
O2472       O  0.81091355  0.76479614  0.67252710    -0.81300
C2473       C  0.68514309  0.74028351  0.75078332     0.86900
O2474       O  0.74756288  0.76622856  0.70237825    -0.88400
O2475       O  0.72770065  0.80171041  0.75154852    -0.88500
O2476       O  0.77115004  0.81545807  0.74480514    -0.75600
Mg2477     Mg  0.71210895  0.71517691  0.80084417     1.58000
O2478       O  0.67331139  0.78014937  0.82322529    -0.82900
H2479       H  0.75591552  0.66665814  0.73828792    -0.06700
O2480       O  0.79992987  0.75414838  0.73823074    -0.88200
H2481       H  0.82953332  0.77940072  0.75535988    -0.06500
H2482       H  0.72636872  0.74179773  0.67469788    -0.06700
C2483       C  0.81533657  0.76159680  0.75813576     0.86900
C2484       C  0.75296427  0.68358022  0.75364753     0.87500
C2485       C  0.74354371  0.74330708  0.68990195     0.87500
H2486       H  0.74448979  0.83489839  0.77234752    -0.06600
O2487       O  0.74075019  0.78100624  0.81467278    -0.75700
Mg2488     Mg  0.78813377  0.78699070  0.70921408     1.58000
H2489       H  0.77298196  0.76105693  0.83542124    -0.06700
C2490       C  0.84563897  0.68325010  0.76698946     0.92500
O2491       O  0.82510510  0.72124071  0.68471345    -0.82900
C2492       C  0.82601736  0.74263193  0.66828363     0.92600
O2493       O  0.72476895  0.68122700  0.83175013    -0.82900
Mg2494     Mg  0.70175486  0.79090100  0.78671180     1.58200
O2495       O  0.83771601  0.69644389  0.74480304    -0.81200
O2496       O  0.67059908  0.81879155  0.71909302    -0.82900
O2497       O  0.79364622  0.97845160  0.53073869    -0.88500
C2498       C  0.70748989  0.97940168  0.54361314     0.87500
Mg2499     Mg  0.81557708  0.51612091  0.52539044     1.58100
O2500       O  0.72609707  0.95300933  0.97794164    -0.88200
O2501       O  0.78396333  0.93674397  0.51184494    -0.75600
C2502       C  0.74623484  0.58341075  0.92487541     0.92600
O2503       O  0.75382929  0.52385486  0.56232615    -0.75400
O2504       O  0.76170466  0.58733667  0.94657632    -0.82900
Mg2505     Mg  0.76564484  0.98024734  0.56678441     1.58000
C2506       C  0.68174064  0.98348671  0.90569302     0.92500
O2507       O  0.77440812  0.93373310  0.57966019    -0.81100
H2508       H  0.74718604  0.92471981  0.95418896    -0.06500
C2509       C  0.70476875  0.53483574  0.98008162     0.87400
O2510       O  0.81719532  0.50855535  0.97508798    -0.75700
O2511       O  0.73090122  0.96875744  0.53880491    -0.88400
O2512       O  0.67742415  0.96972452  0.92857901    -0.81200
C2513       C  0.66709738  0.91585014  0.50323252     0.92600
C2514       C  0.75860410  0.91181131  0.57856031     0.92500
Mg2515     Mg  0.74159706  0.51314575  0.93197152     1.58000
O2516       O  0.73350749  0.55994630  0.92038929    -0.81200
O2517       O  0.74742899  0.96524593  0.93899574    -0.75400
O2518       O  0.68893116  0.91509850  0.51929647    -0.81200
O2519       O  0.80186886  0.99275821  0.59610468    -0.82900
O2520       O  0.81550360  0.57572271  0.98143102    -0.81300
C2521       C  0.74022620  0.94658092  0.95695981     0.86900
O2522       O  0.77567678  0.52346253  0.96066057    -0.88400
O2523       O  0.71305165  0.51340554  0.96713210    -0.88500
O2524       O  0.72186896  0.55359822  0.98938466    -0.75600
Mg2525     Mg  0.73576364  0.92944038  0.51584843     1.58000
O2526       O  0.66258694  0.93586334  0.98537896    -0.82900
H2527       H  0.82369746  0.95296327  0.51481945    -0.06700
O2528       O  0.77521180  0.53746868  0.52389846    -0.88200
H2529       H  0.75367636  0.56482124  0.54832198    -0.06500
H2530       H  0.80473401  0.50846567  0.93380008    -0.06700
C2531       C  0.76089647  0.54313185  0.54496569     0.86900
C2532       C  0.80146761  0.95602823  0.51921671     0.87500
C2533       C  0.79931307  0.51349756  0.95546326     0.87500
H2534       H  0.68244293  0.53722189  0.98437369    -0.06600
O2535       O  0.68974130  0.98401454  0.52379343    -0.75700
Mg2536     Mg  0.76963742  0.56156005  0.98552923     1.58000
H2537       H  0.70215678  0.98531590  0.56508188    -0.06700
C2538       C  0.81929420  0.50588049  0.59530615     0.92500
O2539       O  0.83853688  0.55832470  0.51890594    -0.82900
C2540       C  0.83752566  0.57609905  0.99704597     0.92600
O2541       O  0.74246797  0.90688310  0.55747158    -0.82900
Mg2542     Mg  0.68668935  0.97650426  0.97669274     1.58200
O2543       O  0.82257612  0.52210912  0.57391753    -0.81200
O2544       O  0.70531342  0.50333171  0.90260423    -0.82900
C2545       C  0.75480681  0.85818048  0.65224374    -0.05600
C2546       C  0.73036531  0.86380233  0.63611210    -0.33100
C2547       C  0.73161729  0.88063686  0.61175143     0.36200
C2548       C  0.75754402  0.89267089  0.60333649    -0.06000
C2549       C  0.78171656  0.88830119  0.62023905    -0.33000
C2550       C  0.78056182  0.87106272  0.64438898     0.36100
H2551       H  0.71035881  0.85421395  0.64172386     0.16500
O2552       O  0.70710609  0.88606930  0.59688950    -0.60400
H2553       H  0.80165534  0.89795757  0.61450366     0.16500
O2554       O  0.80485446  0.86657729  0.65988572    -0.60500
H2555       H  0.80550833  0.88247631  0.67382033     0.43500
H2556       H  0.70443412  0.86926386  0.58430583     0.43400
C2557       C  0.74745582  0.64499925  0.85793862    -0.05600
C2558       C  0.72312967  0.62844288  0.86212063    -0.33100
C2559       C  0.72196598  0.60872000  0.88428773     0.36200
C2560       C  0.74514562  0.60581695  0.90304063    -0.06000
C2561       C  0.76913742  0.62294233  0.89923716    -0.33000
C2562       C  0.77055210  0.64214650  0.87676458     0.36100
H2563       H  0.70501247  0.63073884  0.84807458     0.16500
O2564       O  0.69812938  0.59244574  0.88738971    -0.60400
H2565       H  0.78727772  0.62092990  0.91330975     0.16500
O2566       O  0.79407026  0.65900563  0.87422378    -0.60500
H2567       H  0.80808451  0.64703787  0.86403186     0.43500
H2568       H  0.68637415  0.60292044  0.90133456     0.43400
C2569       C  0.85726315  0.60032543  0.99375493    -0.05600
C2570       C  0.87045333  0.61184591  0.01789803    -0.33100
C2571       C  0.88620012  0.63700396  0.01627408     0.36200
C2572       C  0.88937615  0.65105405  0.99007807    -0.06000
C2573       C  0.87677774  0.63920566  0.96573732    -0.33000
C2574       C  0.86052307  0.61426960  0.96747330     0.36100
H2575       H  0.86794468  0.60173700  0.03833262     0.16500
O2576       O  0.89898901  0.64730785  0.04041282    -0.60400
H2577       H  0.87950683  0.64932894  0.94534408     0.16500
O2578       O  0.84786473  0.60376841  0.94335854    -0.60500
H2579       H  0.86291005  0.58761678  0.43867568     0.43500
H2580       H  0.91807400  0.63839165  0.04078678     0.43400
C2581       C  0.60542833  0.84827406  0.50973283    -0.05600
C2582       C  0.60989350  0.86233166  0.48396125    -0.33100
C2583       C  0.62932734  0.88458341  0.48187942     0.36200
C2584       C  0.64532338  0.89315837  0.50578943    -0.06000
C2585       C  0.64129354  0.87874871  0.53160304    -0.33000
C2586       C  0.62121441  0.85673751  0.53377512     0.36100
H2587       H  0.59767884  0.85650653  0.46529119     0.16500
O2588       O  0.63259845  0.89764452  0.45615461    -0.60400
H2589       H  0.65348903  0.88477487  0.55020718     0.16500
O2590       O  0.61726660  0.84367238  0.55937797    -0.60500
H2591       H  0.62740434  0.83214537  0.06489394     0.43500
H2592       H  0.64716636  0.88618542  0.44617992     0.43400
C2593       C  0.60242524  0.75641292  0.89850024    -0.05600
C2594       C  0.61318210  0.78280743  0.88944775    -0.33100
C2595       C  0.63656725  0.78418427  0.87146440     0.36200
C2596       C  0.65000184  0.75887873  0.86222016    -0.06000
C2597       C  0.63963672  0.73250299  0.87172231    -0.33000
C2598       C  0.61599949  0.73109129  0.88940805     0.36100
H2599       H  0.60342988  0.80261062  0.89634492     0.16500
O2600       O  0.64594965  0.81044849  0.86295101    -0.60400
H2601       H  0.64936805  0.71271289  0.86475395     0.16500
O2602       O  0.60701304  0.70483224  0.89837425    -0.60500
H2603       H  0.59419077  0.69781856  0.88314774     0.43500
H2604       H  0.66077413  0.81583047  0.87695646     0.43400
C2605       C  0.89153373  0.74586277  0.60514223    -0.05600
C2606       C  0.88004265  0.71941869  0.61329572    -0.33100
C2607       C  0.85815283  0.71792551  0.63310429     0.36200
C2608       C  0.84702693  0.74315051  0.64509308    -0.06000
C2609       C  0.85813239  0.76956575  0.63662550    -0.33000
C2610       C  0.88026728  0.77108396  0.61716510     0.36100
H2611       H  0.88801899  0.69968044  0.60427002     0.16500
O2612       O  0.84785497  0.69167532  0.64054467    -0.60400
H2613       H  0.85016072  0.78927798  0.64572828     0.16500
O2614       O  0.89010878  0.79746303  0.60955820    -0.60500
H2615       H  0.90447496  0.80245219  0.62418201     0.43500
H2616       H  0.83141176  0.68839858  0.62775968     0.43400
C2617       C  0.87212778  0.66562869  0.76512387    -0.05600
C2618       C  0.88373159  0.65254014  0.78935260    -0.33100
C2619       C  0.90599821  0.63262535  0.78711062     0.36200
C2620       C  0.91678505  0.62499102  0.76029714    -0.06000
C2621       C  0.90607769  0.63876328  0.73624433    -0.33000
C2622       C  0.88454044  0.65931893  0.73845133     0.36100
H2623       H  0.87494786  0.65701177  0.81003071     0.16500
O2624       O  0.91601731  0.61957097  0.81117296    -0.60400
H2625       H  0.91415659  0.63322903  0.71550558     0.16500
O2626       O  0.87476732  0.67178190  0.71397758    -0.60500
H2627       H  0.88670801  0.68894846  0.71142582     0.43500
H2628       H  0.90424347  0.60224068  0.81336329     0.43400
C2629       C  0.62822209  0.83604001  0.74125334    -0.05600
C2630       C  0.61459231  0.84387452  0.71585837    -0.33100
C2631       C  0.59197206  0.86347662  0.71587623     0.36200
C2632       C  0.58284194  0.87590524  0.74154242    -0.06000
C2633       C  0.59559642  0.86710941  0.76697388    -0.33000
C2634       C  0.61776246  0.84719807  0.76708447     0.36100
H2635       H  0.62208658  0.83552927  0.69582743     0.16500
O2636       O  0.58018022  0.87167258  0.69051462    -0.60400
H2637       H  0.58904158  0.87654579  0.78688587     0.16500
O2638       O  0.63054273  0.84073103  0.79248537    -0.60500
H2639       H  0.61896395  0.82521896  0.80064604     0.43500
H2640       H  0.59171887  0.88804998  0.68413462     0.43400
C2641       C  0.62206838  0.49037203  0.83666032    -0.05600
C2642       C  0.63399074  0.46367488  0.84387939    -0.33100
C2643       C  0.65483341  0.46142751  0.86527259     0.36200
C2644       C  0.66166951  0.98053793  0.88124440    -0.06000
C2645       C  0.66412589  0.99911339  0.85789055    -0.33000
C2646       C  0.64303173  0.00047641  0.83685126     0.36100
H2647       H  0.62633733  0.44438411  0.83368782     0.16500
O2648       O  0.66532779  0.43506441  0.87249757    -0.60400
H2649       H  0.68189867  0.01355222  0.85642182     0.16500
O2650       O  0.64549805  0.01967177  0.81515270    -0.60500
H2651       H  0.65564623  0.00918711  0.80000327     0.43500
H2652       H  0.68153171  0.43178758  0.85965344     0.43400
C2653       C  0.88480609  0.01603535  0.65938053    -0.05600
C2654       C  0.87251217  0.48439573  0.65179519    -0.33100
C2655       C  0.85093768  0.48267071  0.63138024     0.36200
C2656       C  0.83943293  0.50781321  0.61941262    -0.06000
C2657       C  0.86996599  0.02317208  0.61048146    -0.33000
C2658       C  0.89120795  0.02314605  0.63122042     0.36100
H2659       H  0.88185118  0.46485158  0.65991930     0.16500
O2660       O  0.84279519  0.45625157  0.62168114    -0.60400
H2661       H  0.87571344  0.02807316  0.58886977     0.16500
O2662       O  0.91827988  0.03034871  0.62380798    -0.60500
H2663       H  0.92664515  0.01264216  0.61577439     0.43500
H2664       H  0.82880886  0.44936777  0.63560612     0.43400
C2665       C  0.48965451  0.91631439  0.62760573    -0.05600
C2666       C  0.51391871  0.90551980  0.61460309    -0.33100
C2667       C  0.51203023  0.88368627  0.59433658     0.36200
C2668       C  0.98538024  0.87157780  0.58711461    -0.06000
C2669       C  0.96097026  0.88318035  0.59959320    -0.33000
C2670       C  0.96296169  0.90544425  0.61954755     0.36100
H2671       H  0.53456398  0.91361106  0.62067451     0.16500
O2672       O  0.53664695  0.87374759  0.58254954    -0.60400
H2673       H  0.94034255  0.87442090  0.59455562     0.16500
O2674       O  0.93879084  0.91537733  0.63220016    -0.60500
H2675       H  0.93657312  0.90353022  0.64940984     0.43500
H2676       H  0.54403135  0.85922610  0.59599515     0.43400
C2677       C  0.50827463  0.63258519  0.91043579    -0.05600
C2678       C  0.98293528  0.62485262  0.89658618    -0.33100
C2679       C  0.98235760  0.60289912  0.87639167     0.36200
C2680       C  0.00728312  0.58760765  0.86999398    -0.06000
C2681       C  0.53227689  0.59413059  0.88500732    -0.33000
C2682       C  0.53302313  0.61671965  0.90471772     0.36100
H2683       H  0.96361522  0.63676486  0.90041440     0.16500
O2684       O  0.95748180  0.59730351  0.86226850    -0.60400
H2685       H  0.55171463  0.58277097  0.88029922     0.16500
O2686       O  0.55804462  0.62313142  0.91817184    -0.60500
H2687       H  0.56863221  0.63504321  0.90456987     0.42700
H2688       H  0.94796796  0.58248021  0.87367490     0.43400
loop_ 
_geom_bond_atom_site_label_1 
_geom_bond_atom_site_label_2 
_geom_bond_distance 
_geom_bond_site_symmetry_2 
_ccdc_geom_bond_type 
O1           C36   1.236       .  S
O1           Mg9   2.173       .  S
O1         Mg675   2.160   1_545  S
C2           O15   1.234       .  S
C2           O39   1.270       .  A
C2           H41   1.081       .  S
Mg3          O32   2.140       .  S
Mg3         O673   2.165       .  S
Mg3          O47   2.301       .  S
Mg3          O43   2.275       .  S
Mg3        O1358   2.312       .  S
O4           C25   1.236       .  S
O4          Mg46   2.166       .  S
O4        Mg1373   2.160   1_455  S
O5           C36   1.272       .  A
O5          Mg29   2.309       .  S
C6            O8   1.271       .  A
C6           O20   1.276       .  A
C6          C280   1.480       .  S
O7           C35   1.271       .  A
O7         Mg681   2.312       .  S
O8          Mg40   2.271       .  S
Mg9          O15   2.146       .  S
Mg9          O23   2.278       .  S
Mg9          O11   2.327       .  S
Mg9         O679   2.304   1_545  S
C10          O16   1.275   1_565  A
C10         O720   1.272       .  A
C10         C289   1.475       .  S
O11          C18   1.277       .  A
H12          C25   1.081       .  S
C13          O27   1.235       .  S
C13          O28   1.270       .  A
C13          H38   1.081       .  S
O14          C37   1.272       .  A
O14       Mg1347   2.312   1_455  S
O15         Mg29   2.141       .  S
O16         Mg46   2.304       .  S
C17          O22   1.273       .  A
C17        O1374   1.273       .  A
C17         C328   1.480       .  S
C18          O45   1.271       .  A
C18         C268   1.481       .  S
Mg19         O26   2.157       .  S
Mg19         O27   2.159       .  S
Mg19         O20   2.315       .  S
Mg19         O48   2.278       .  S
Mg19        O693   2.304       .  S
O21          C25   1.270       .  A
O21        Mg691   2.301   1_545  S
O22         Mg29   2.290       .  S
O23         C714   1.272       .  A
O24          C44   1.273   1_455  A
O24         Mg40   2.308       .  S
O26          C37   1.237       .  S
O26         Mg40   2.153       .  S
O27        Mg718   2.152       .  S
O28         Mg40   2.301       .  S
Mg29       O1348   2.160       .  S
Mg29         O45   2.276       .  S
O30        C1361   1.273       .  A
O30         Mg46   2.286       .  S
H31          C36   1.081       .  S
O32          C35   1.235       .  S
O32       Mg1384   2.161       .  S
H33          C35   1.081       .  S
H34          C37   1.081       .  S
O39       Mg1390   2.303       .  S
Mg40       O1376   2.161   1_455  S
C42          O47   1.273       .  A
C42         O695   1.271       .  A
C42         C301   1.471       .  S
O43        C1388   1.270       .  A
C44        O1387   1.270       .  A
C44         C313   1.477       .  S
Mg46        O699   2.154   1_545  S
Mg46       O1383   2.303   1_455  S
O48         C682   1.272       .  A
O49          C84   1.234       .  S
O49         Mg51   2.144   1_655  S
O49       Mg1401   2.163       .  S
C50         O399   1.238       .  S
C50          O87   1.273       .  A
C50          H89   1.081       .  S
Mg51        O416   2.160   1_554  S
Mg51         O95   2.278       .  S
Mg51         O91   2.274       .  S
Mg51         O62   2.297       .  S
O52        C1417   1.233   1_556  S
O52         Mg77   2.148   1_556  S
O52        Mg430   2.149       .  S
O53        C1428   1.268       .  A
O53         Mg77   2.292       .  S
C54          O56   1.270       .  A
C54          O68   1.279       .  A
C54         C241   1.489       .  S
O55         C419   1.269   1_554  A
O55         Mg57   2.302       .  S
O56         Mg88   2.243       .  S
Mg57         O63   2.169       .  S
Mg57       O1393   2.163       .  S
Mg57         O71   2.311       .  S
Mg57         O59   2.323       .  S
C58          O96   1.277       .  A
C58        O1408   1.274   1_455  A
C58         C325   1.488       .  S
O59          C66   1.278       .  A
H60          C73   1.081       .  S
C61          O75   1.234       .  S
C61        O1420   1.267       .  A
C61          H86   1.081       .  S
O62          C85   1.270       .  A
O63         C386   1.237   1_554  S
O63         Mg77   2.166       .  S
O64        C1402   1.274       .  A
O64         Mg94   2.290       .  S
C65          O78   1.269       .  A
C65         O406   1.274       .  A
C65         C220   1.482       .  S
C66          O93   1.272       .  A
C66         C253   1.486       .  S
Mg67         O74   2.152       .  S
Mg67       O1419   2.177   1_455  S
Mg67         O68   2.326       .  S
Mg67         O69   2.296       .  S
Mg67         O96   2.296       .  S
O69         C409   1.268   1_455  A
O70         C401   1.274   1_554  A
O70         Mg77   2.301       .  S
O71          C90   1.278       .  A
O72         C428   1.271       .  A
O72         Mg88   2.275       .  S
C73        O1396   1.233   1_554  S
C73         O405   1.268   1_654  A
O74         C421   1.236       .  S
O74         Mg88   2.164       .  S
O75         Mg94   2.139       .  S
O75       Mg1411   2.177       .  S
O76        C1405   1.267   1_455  A
O76         Mg88   2.288       .  S
Mg77         O93   2.251       .  S
O78         Mg94   2.257       .  S
H79          C84   1.081   1_455  S
O80        C1427   1.234   1_455  S
O80         Mg88   2.146       .  S
O80        Mg387   2.158       .  S
H81          C83   1.081       .  S
H82          C85   1.081       .  S
C83        O1424   1.234       .  S
C83         O391   1.269       .  A
C84        O1397   1.268       .  A
C85         O410   1.236   1_554  S
O87         Mg94   2.313       .  S
C90        O1439   1.272       .  A
C90         C316   1.496       .  S
O91          C92   1.270       .  A
C92         O408   1.272   1_554  A
C92         C229   1.481       .  S
Mg94        O388   2.146       .  S
O95        C1434   1.272   1_455  A
O97         C132   1.234       .  S
O97         Mg99   2.136       .  S
O97        Mg105   2.162       .  S
C98         O111   1.236       .  S
C98         O135   1.271       .  A
C98         H137   1.081       .  S
Mg99        O128   2.151       .  S
Mg99        O143   2.282       .  S
Mg99        O139   2.262       .  S
Mg99        O110   2.300       .  S
O100        C121   1.234       .  S
O100       Mg142   2.156       .  S
O100       Mg125   2.147       .  S
O101        C132   1.267       .  A
O101       Mg125   2.290       .  S
C102        O104   1.268       .  A
C102        O116   1.278       .  A
C102        C193   1.479       .  S
O103        C131   1.268       .  A
O103       Mg105   2.297       .  S
O104       Mg136   2.227       .  S
Mg105       O111   2.167       .  S
Mg105       O119   2.322       .  S
Mg105       O107   2.317       .  S
C106        O144   1.277       .  A
C106        O112   1.273       .  A
C106        C277   1.490       .  S
O107        C114   1.279       .  A
H108        C121   1.081       .  S
C109        O123   1.233       .  S
C109        O124   1.267       .  A
C109        H134   1.081       .  S
O110        C133   1.271       .  A
O111       Mg125   2.179       .  S
O112       Mg142   2.287       .  S
C113        O126   1.269       .  A
C113        O118   1.274       .  A
C113        C244   1.484       .  S
C114        O141   1.270       .  A
C114        C205   1.476       .  S
Mg115       O122   2.159       .  S
Mg115       O123   2.161       .  S
Mg115       O116   2.318       .  S
Mg115       O117   2.300       .  S
Mg115       O144   2.300       .  S
O117        C121   1.269       .  A
O118       Mg125   2.298       .  S
O119        C138   1.280       .  A
O120        C140   1.272       .  A
O120       Mg136   2.288       .  S
O122        C133   1.237       .  S
O122       Mg136   2.173       .  S
O123       Mg142   2.133       .  S
O124       Mg136   2.288       .  S
Mg125       O141   2.243       .  S
O126       Mg142   2.255       .  S
H127        C132   1.081       .  S
O128        C131   1.234       .  S
O128       Mg136   2.138       .  S
H129        C131   1.081       .  S
H130        C133   1.081       .  S
O135       Mg142   2.300       .  S
C138        O143   1.272       .  A
C138        C265   1.499       .  S
O139        C140   1.270       .  A
C140        C256   1.485       .  S
O145        C180   1.238       .  S
O145       Mg153   2.151       .  S
O145       Mg819   2.153       .  S
C146        O159   1.234       .  S
C146        O183   1.270       .  A
C146        H185   1.081       .  S
Mg147       O176   2.146       .  S
Mg147       O817   2.154   1_545  S
Mg147       O191   2.298       .  S
Mg147       O187   2.289       .  S
Mg147       O494   2.301   1_554  S
O148        C169   1.235       .  S
O148       Mg190   2.163       .  S
O148       Mg509   2.158       .  S
O149        C180   1.274       .  A
O149       Mg173   2.318       .  S
C150        O152   1.268       .  A
C150        O164   1.273       .  A
C150        C208   1.477       .  S
O151        C179   1.267       .  A
O151       Mg825   2.288   1_545  S
O152       Mg184   2.235       .  S
Mg153       O159   2.164       .  S
Mg153       O167   2.252       .  S
Mg153       O155   2.285       .  S
Mg153       O823   2.291       .  S
C154        O160   1.278       .  A
C154        O864   1.271       .  A
C154        C292   1.496       .  S
O155        C162   1.269       .  A
H156        C169   1.081       .  S
C157        O171   1.236       .  S
C157        O172   1.270       .  A
C157        H182   1.081       .  S
O158        C181   1.270       .  A
O158       Mg483   2.304       .  S
O159       Mg173   2.135       .  S
O160       Mg190   2.328       .  S
C161        O166   1.274       .  A
C161        O510   1.273   1_554  A
C161        C232   1.481       .  S
C162        O189   1.269       .  A
C162        C196   1.475       .  S
Mg163       O170   2.148       .  S
Mg163       O171   2.157       .  S
Mg163       O164   2.306       .  S
Mg163       O192   2.255       .  S
Mg163       O837   2.304   1_545  S
O165        C169   1.270       .  A
O165       Mg835   2.303       .  S
O166       Mg173   2.310       .  S
O167        C858   1.270       .  A
O168        C188   1.271       .  A
O168       Mg184   2.287       .  S
O170        C181   1.235       .  S
O170       Mg184   2.149       .  S
O171       Mg862   2.141   1_545  S
O172       Mg184   2.295       .  S
Mg173       O484   2.156   1_554  S
Mg173       O189   2.256       .  S
O174        C497   1.273       .  A
O174       Mg190   2.265       .  S
H175        C180   1.081       .  S
O176        C179   1.234       .  S
O176       Mg520   2.131   1_554  S
H177        C179   1.081       .  S
H178        C181   1.081       .  S
O183       Mg526   2.311   1_554  S
Mg184       O512   2.137       .  S
C186        O191   1.276       .  A
C186        O839   1.272   1_545  A
C186        C304   1.484       .  S
O187        C524   1.275   1_554  A
C188        O523   1.275       .  A
C188        C217   1.478       .  S
Mg190       O843   2.140       .  S
Mg190       O519   2.307       .  S
O192        C826   1.271   1_545  A
C193        C194   1.403       .  A
C193        C198   1.413       .  A
C194        H199   1.084       .  S
C194        C195   1.397       .  A
C195        C196   1.410       .  A
C195        O200   1.372       .  S
C196        C197   1.403       .  A
C197        H201   1.084       .  S
C197        C198   1.400       .  A
C198        O202   1.372       .  S
O200        H204   0.992       .  S
O202        H203   0.992       .  S
C205        C206   1.406       .  A
C205        C210   1.408       .  A
C206        H211   1.084       .  S
C206        C207   1.403       .  A
C207        C208   1.410       .  A
C207        O212   1.372       .  S
C208        C209   1.404       .  A
C209        H213   1.084       .  S
C209        C210   1.395       .  A
C210        O214   1.372       .  S
O212        H216   0.992       .  S
O214        H215   0.992       .  S
C217        C218   1.401       .  A
C217        C222   1.411       .  A
C218        H223   1.084       .  S
C218        C219   1.398       .  A
C219        C220   1.413       .  A
C219        O224   1.372       .  S
C220        C221   1.405       .  A
C221        H225   1.084       .  S
C221        C222   1.403       .  A
C222        O226   1.372       .  S
O224        H228   0.992       .  S
O226        H563   0.992       .  S
H227        O562   0.992       .  S
C229        C230   1.405   1_554  A
C229        C234   1.410       .  A
C230        H235   1.084       .  S
C230        C231   1.394       .  A
C231        C232   1.408   1_556  A
C231        O236   1.372       .  S
C232        C233   1.409       .  A
C233        H237   1.084       .  S
C233        C234   1.406       .  A
C234        O238   1.371       .  S
O236        H240   0.992       .  S
O238        H575   0.992       .  S
H239        O574   0.992       .  S
C241        C242   1.409       .  A
C241        C246   1.412       .  A
C242        H247   1.083       .  S
C242        C243   1.401       .  A
C243        C244   1.410       .  A
C243        O248   1.372       .  S
C244        C245   1.406       .  A
C245        H249   1.084       .  S
C245        C246   1.401       .  A
C246        O250   1.372       .  S
O248        H252   0.992       .  S
O250        H251   0.992       .  S
C253        C254   1.407       .  A
C253        C258   1.411       .  A
C254        H259   1.083       .  S
C254        C255   1.401       .  A
C255        C256   1.410       .  A
C255        O260   1.371       .  S
C256        C257   1.407       .  A
C257        H261   1.084       .  S
C257        C258   1.400       .  A
C258        O262   1.372       .  S
O260        H264   0.992       .  S
O262        H263   0.992       .  S
C265        C266   1.407       .  A
C265        C270   1.422       .  A
C266        H271   1.083       .  S
C266        C267   1.406       .  A
C267        C268   1.410       .  A
C267        O272   1.372       .  S
C268        C269   1.398       .  A
C269        H273   1.084       .  S
C269        C270   1.403       .  A
C270        O274   1.372       .  S
O272        H276   0.992       .  S
O274        H275   0.992       .  S
C277        C278   1.406       .  A
C277        C282   1.418       .  A
C278        H283   1.083       .  S
C278        C279   1.405       .  A
C279        C280   1.411       .  A
C279        O284   1.372       .  S
C280        C281   1.399       .  A
C281        H285   1.084       .  S
C281        C282   1.399       .  A
C282        O286   1.372       .  S
O284        H288   0.992       .  S
O286        H287   0.992       .  S
C289        C290   1.402       .  A
C289        C966   1.403       .  A
C290        H295   1.084       .  S
C290        C291   1.401       .  A
C291        C964   1.415       .  A
C291        O296   1.371       .  S
C292        C293   1.413       .  A
C292        C963   1.415       .  A
C293        H297   1.083       .  S
C293        C294   1.405       .  A
C294        C961   1.403       .  A
C294        O298   1.371       .  S
O296        H300   0.992       .  S
O298        H299   0.991       .  S
C301        C306   1.407       .  A
C301        C974   1.399       .  A
C302        H307   1.083       .  S
C302        C303   1.406       .  A
C302        C973   1.402       .  A
C303        C304   1.413       .  A
C303        O308   1.371       .  S
C304        C977   1.405       .  A
C305        H309   1.083       .  S
C305        C306   1.402       .  A
C305        C976   1.406       .  A
C306        O310   1.372       .  S
O308        H312   0.992       .  S
O310        H311   0.992       .  S
C313        C314   1.397   1_655  A
C313       C1662   1.409       .  A
C314        H319   1.084       .  S
C314        C315   1.401       .  A
C315       C1660   1.422   1_455  A
C315        O320   1.372       .  S
C316        C317   1.407       .  A
C316       C1659   1.422       .  A
C317        H321   1.083       .  S
C317        C318   1.404       .  A
C318       C1657   1.409       .  A
C318        O322   1.372       .  S
O320        H324   0.992       .  S
O322        H323   0.992       .  S
C325        C330   1.410       .  A
C325       C1670   1.408   1_455  A
C326        H331   1.084       .  S
C326        C327   1.398       .  A
C326       C1669   1.408       .  A
C327        C328   1.408       .  A
C327        O332   1.372       .  S
C328       C1673   1.406       .  A
C329        H333   1.084       .  S
C329        C330   1.406       .  A
C329       C1672   1.406       .  A
C330        O334   1.371       .  S
O332        H336   0.992       .  S
O334        H335   0.992       .  S
O337        C372   1.236       .  S
O337      Mg1011   2.154   1_545  S
O337       Mg345   2.169       .  S
C338        O351   1.235       .  S
C338        O375   1.270       .  A
C338        H377   1.081       .  S
Mg339      O1009   2.162       .  S
Mg339       O368   2.146       .  S
Mg339       O383   2.300       .  S
Mg339       O379   2.271       .  S
Mg339      O1694   2.311       .  S
O340        C361   1.236       .  S
O340       Mg382   2.165       .  S
O340      Mg1709   2.163   1_455  S
O341        C372   1.271       .  A
O341       Mg365   2.305       .  S
C342        O344   1.272       .  A
C342        O356   1.276       .  A
C342        C616   1.483       .  S
O343        C371   1.271       .  A
O343      Mg1017   2.312       .  S
O344       Mg376   2.280       .  S
Mg345       O351   2.149       .  S
Mg345      O1015   2.302   1_545  S
Mg345       O359   2.281       .  S
Mg345       O347   2.322       .  S
C346       O1056   1.270       .  A
C346        O352   1.275   1_565  A
C346        C625   1.473       .  S
O347        C354   1.277       .  A
H348        C361   1.081       .  S
C349        O363   1.235       .  S
C349        O364   1.271       .  A
C349        H374   1.081       .  S
O350        C373   1.272       .  A
O350      Mg1683   2.311   1_455  S
O351       Mg365   2.145       .  S
O352       Mg382   2.313       .  S
C353       O1710   1.274       .  A
C353        O358   1.273       .  A
C353        C664   1.481       .  S
C354        O381   1.272       .  A
C354        C604   1.484       .  S
Mg355       O362   2.163       .  S
Mg355       O363   2.151       .  S
Mg355       O356   2.308       .  S
Mg355      O1029   2.308       .  S
Mg355       O384   2.283       .  S
O357        C361   1.271       .  A
O357      Mg1027   2.303   1_545  S
O358       Mg365   2.287       .  S
O359       C1050   1.272       .  A
O360        C380   1.276   1_455  A
O360       Mg376   2.319       .  S
O362        C373   1.236       .  S
O362       Mg376   2.154       .  S
O363      Mg1054   2.159       .  S
O364       Mg376   2.307       .  S
Mg365      O1684   2.163       .  S
Mg365       O381   2.280       .  S
O366       C1697   1.274       .  A
O366       Mg382   2.292       .  S
H367        C372   1.081       .  S
O368        C371   1.235       .  S
O368      Mg1720   2.161       .  S
H369        C371   1.081       .  S
H370        C373   1.081       .  S
O375      Mg1726   2.305       .  S
Mg376      O1712   2.161   1_455  S
C378       O1031   1.272       .  A
C378        O383   1.274       .  A
C378        C637   1.478       .  S
O379       C1724   1.270       .  A
C380       O1723   1.270       .  A
C380        C649   1.480       .  S
Mg382      O1035   2.162   1_545  S
Mg382      O1719   2.305   1_455  S
O384       C1018   1.273       .  A
O385        C420   1.234       .  S
O385       Mg387   2.144   1_655  S
O385      Mg1737   2.164       .  S
C386        O423   1.273       .  A
C386        H425   1.081       .  S
Mg387       O431   2.283       .  S
Mg387       O427   2.275       .  S
Mg387       O398   2.298       .  S
O388       C1753   1.233       .  S
O388       Mg413   2.149       .  S
O389       C1764   1.268       .  A
O389       Mg413   2.292       .  S
C390        O392   1.271       .  A
C390        O404   1.278       .  A
C390        C577   1.488       .  S
O391       Mg393   2.302       .  S
O392       Mg424   2.247       .  S
Mg393      O1729   2.164       .  S
Mg393       O399   2.169       .  S
Mg393       O407   2.311       .  S
Mg393       O395   2.327       .  S
C394        O432   1.276       .  A
C394       O1744   1.275   1_455  A
C394        C661   1.488       .  S
O395        C402   1.279       .  A
H396        C409   1.081       .  S
C397        O411   1.234       .  S
C397       O1756   1.268       .  A
C397        H422   1.081       .  S
O398        C421   1.270       .  A
O399       Mg413   2.165       .  S
O400       C1738   1.275       .  A
O400       Mg430   2.295       .  S
C401        O414   1.271       .  A
C401        C556   1.485       .  S
C402        O429   1.271       .  A
C402        C589   1.489       .  S
Mg403       O410   2.152       .  S
Mg403      O1755   2.178   1_455  S
Mg403       O404   2.324       .  S
Mg403       O405   2.296       .  S
Mg403       O432   2.289       .  S
O406       Mg413   2.297       .  S
O407        C426   1.278       .  A
O408       Mg424   2.280       .  S
C409       O1732   1.233       .  S
O410       Mg424   2.164       .  S
O411      Mg1747   2.178       .  S
O411       Mg430   2.147       .  S
O412       C1741   1.268   1_455  A
O412       Mg424   2.291       .  S
Mg413       O429   2.253       .  S
O414       Mg430   2.269       .  S
H415        C420   1.081   1_455  S
O416       C1763   1.235   1_455  S
O416       Mg424   2.145       .  S
H417        C419   1.081       .  S
H418        C421   1.081       .  S
C419       O1760   1.235       .  S
C420       O1733   1.268       .  A
O423       Mg430   2.312       .  S
C426       O1775   1.272       .  A
C426        C652   1.496       .  S
O427        C428   1.271       .  A
C428        C565   1.480       .  S
O431       C1770   1.272   1_455  A
O433        C468   1.234       .  S
O433       Mg435   2.137       .  S
O433       Mg441   2.162       .  S
C434        O447   1.236       .  S
C434        O471   1.271       .  A
C434        H473   1.081       .  S
Mg435       O464   2.156       .  S
Mg435       O479   2.274       .  S
Mg435       O475   2.265       .  S
Mg435       O446   2.296       .  S
O436        C457   1.234       .  S
O436       Mg478   2.153       .  S
O436       Mg461   2.147       .  S
O437        C468   1.267       .  A
O437       Mg461   2.290       .  S
C438        O440   1.269       .  A
C438        O452   1.278       .  A
C438        C529   1.477       .  S
O439        C467   1.268       .  A
O439       Mg441   2.297       .  S
O440       Mg472   2.229       .  S
Mg441       O447   2.174       .  S
Mg441       O455   2.333       .  S
Mg441       O443   2.318       .  S
C442        O480   1.277       .  A
C442        O448   1.273       .  A
C442        C613   1.490       .  S
O443        C450   1.279       .  A
H444        C457   1.081       .  S
C445        O459   1.233       .  S
C445        O460   1.266       .  A
C445        H470   1.081       .  S
O446        C469   1.270       .  A
O447       Mg461   2.180       .  S
O448       Mg478   2.288       .  S
C449        O462   1.269       .  A
C449        O454   1.275       .  A
C449        C580   1.487       .  S
C450        O477   1.270       .  A
C450        C541   1.474       .  S
Mg451       O458   2.158       .  S
Mg451       O459   2.163       .  S
Mg451       O452   2.311       .  S
Mg451       O453   2.299       .  S
Mg451       O480   2.300       .  S
O453        C457   1.268       .  A
O454       Mg461   2.308       .  S
O455        C474   1.281       .  A
O456        C476   1.272       .  A
O456       Mg472   2.288       .  S
O458        C469   1.236       .  S
O458       Mg472   2.178       .  S
O459       Mg478   2.130       .  S
O460       Mg472   2.288       .  S
Mg461       O477   2.236       .  S
O462       Mg478   2.248       .  S
H463        C468   1.081       .  S
O464        C467   1.234       .  S
O464       Mg472   2.139       .  S
H465        C467   1.081       .  S
H466        C469   1.081       .  S
O471       Mg478   2.304       .  S
C474        O479   1.271       .  A
C474        C601   1.498       .  S
O475        C476   1.270       .  A
C476        C592   1.486       .  S
O481        C516   1.237       .  S
O481      Mg1155   2.151       .  S
O481       Mg489   2.142       .  S
C482        O495   1.234       .  S
C482        O519   1.270       .  A
C482        H521   1.081       .  S
Mg483      O1153   2.156   1_545  S
Mg483       O512   2.148       .  S
Mg483       O527   2.306       .  S
Mg483       O523   2.286       .  S
O484        C505   1.234       .  S
O484       Mg526   2.159       .  S
O485        C516   1.273       .  A
O485       Mg509   2.317       .  S
C486        O488   1.267       .  A
C486        O500   1.273       .  A
C486        C544   1.475       .  S
O487        C515   1.267       .  A
O487      Mg1161   2.290   1_545  S
O488       Mg520   2.224       .  S
Mg489       O495   2.158       .  S
Mg489      O1159   2.297       .  S
Mg489       O503   2.248       .  S
Mg489       O491   2.284       .  S
C490       O1200   1.269       .  A
C490        O496   1.280       .  A
C490        C628   1.482       .  S
O491        C498   1.269       .  A
H492        C505   1.081       .  S
C493        O507   1.236       .  S
C493        O508   1.270       .  A
C493        H518   1.081       .  S
O494        C517   1.269       .  A
O495       Mg509   2.139       .  S
O496       Mg526   2.353       .  S
C497        O502   1.273       .  A
C497        C568   1.480       .  S
C498        O525   1.269       .  A
C498        C532   1.476       .  S
Mg499       O506   2.146       .  S
Mg499       O507   2.158       .  S
Mg499       O500   2.302       .  S
Mg499      O1173   2.302   1_545  S
Mg499       O528   2.251       .  S
O501        C505   1.269       .  A
O501      Mg1171   2.303       .  S
O502       Mg509   2.302       .  S
O503       C1194   1.269       .  A
O504        C524   1.271       .  A
O504       Mg520   2.289       .  S
O506        C517   1.234       .  S
O506       Mg520   2.148       .  S
O507      Mg1198   2.142   1_545  S
O508       Mg520   2.296       .  S
Mg509       O525   2.259       .  S
O510       Mg526   2.262       .  S
H511        C516   1.081       .  S
O512        C515   1.234       .  S
H513        C515   1.081       .  S
H514        C517   1.081       .  S
C522       O1175   1.272   1_545  A
C522        O527   1.277       .  A
C522        C640   1.486       .  S
C524        C553   1.481       .  S
Mg526      O1179   2.143       .  S
O528       C1162   1.271   1_545  A
C529        C530   1.403       .  A
C529        C534   1.411       .  A
C530        H535   1.084       .  S
C530        C531   1.397       .  A
C531        C532   1.411       .  A
C531        O536   1.372       .  S
C532        C533   1.404       .  A
C533        H537   1.084       .  S
C533        C534   1.399       .  A
C534        O538   1.372       .  S
O536        H540   0.992       .  S
O538        H539   0.992       .  S
C541        C542   1.406       .  A
C541        C546   1.407       .  A
C542        H547   1.084       .  S
C542        C543   1.401       .  A
C543        C544   1.408       .  A
C543        O548   1.372       .  S
C544        C545   1.405       .  A
C545        H549   1.084       .  S
C545        C546   1.395       .  A
C546        O550   1.372       .  S
O548        H552   0.992       .  S
O550        H551   0.992       .  S
C553        C554   1.401   1_556  A
C553        C558   1.412       .  A
C554        H559   1.084       .  S
C554        C555   1.398       .  A
C555        C556   1.413   1_554  A
C555        O560   1.372       .  S
C556        C557   1.406       .  A
C557        H561   1.083       .  S
C557        C558   1.405       .  A
C558        O562   1.372       .  S
O560        H564   0.992       .  S
C565        C566   1.406       .  A
C565        C570   1.409       .  A
C566        H571   1.084       .  S
C566        C567   1.395       .  A
C567        C568   1.408       .  A
C567        O572   1.372       .  S
C568        C569   1.408       .  A
C569        H573   1.084       .  S
C569        C570   1.405       .  A
C570        O574   1.371       .  S
O572        H576   0.992       .  S
C577        C578   1.407       .  A
C577        C582   1.412       .  A
C578        H583   1.083       .  S
C578        C579   1.401       .  A
C579        C580   1.411       .  A
C579        O584   1.372       .  S
C580        C581   1.407       .  A
C581        H585   1.084       .  S
C581        C582   1.402       .  A
C582        O586   1.372       .  S
O584        H588   0.992       .  S
O586        H587   0.992       .  S
C589        C590   1.409       .  A
C589        C594   1.412       .  A
C590        H595   1.083       .  S
C590        C591   1.402       .  A
C591        C592   1.410       .  A
C591        O596   1.371       .  S
C592        C593   1.407       .  A
C593        H597   1.084       .  S
C593        C594   1.401       .  A
C594        O598   1.372       .  S
O596        H600   0.992       .  S
O598        H599   0.992       .  S
C601        C602   1.406       .  A
C601        C606   1.422       .  A
C602        H607   1.083       .  S
C602        C603   1.407       .  A
C603        C604   1.412       .  A
C603        O608   1.372       .  S
C604        C605   1.399       .  A
C605        H609   1.084       .  S
C605        C606   1.401       .  A
C606        O610   1.372       .  S
O608        H612   0.992       .  S
O610        H611   0.992       .  S
C613        C614   1.405       .  A
C613        C618   1.416       .  A
C614        H619   1.083       .  S
C614        C615   1.406       .  A
C615        C616   1.412       .  A
C615        O620   1.372       .  S
C616        C617   1.401       .  A
C617        H621   1.084       .  S
C617        C618   1.399       .  A
C618        O622   1.372       .  S
O620        H624   0.992       .  S
O622        H623   0.992       .  S
C625        C626   1.402       .  A
C625       C1302   1.402   1_565  A
C626        H631   1.084       .  S
C626        C627   1.402       .  A
C627       C1300   1.414       .  A
C627        O632   1.371       .  S
C628       C1299   1.407       .  A
C628        C629   1.406       .  A
C629        H633   1.084       .  S
C629        C630   1.400       .  A
C630       C1297   1.407       .  A
C630        O634   1.372       .  S
O632        H636   0.992       .  S
O634        H635   0.992       .  S
C637       C1310   1.402       .  A
C637        C642   1.411       .  A
C638        H643   1.083       .  S
C638       C1309   1.402       .  A
C638        C639   1.406       .  A
C639        C640   1.414       .  A
C639        O644   1.371       .  S
C640       C1313   1.405       .  A
C641        H645   1.083       .  S
C641       C1312   1.404       .  A
C641        C642   1.404       .  A
C642        O646   1.372       .  S
O644        H648   0.992       .  S
O646        H647   0.992       .  S
C649        C650   1.398   1_655  A
C649       C1998   1.411       .  A
C650        H655   1.084       .  S
C650        C651   1.401       .  A
C651       C1996   1.421   1_455  A
C651        O656   1.372       .  S
C652       C1995   1.421       .  A
C652        C653   1.406       .  A
C653        H657   1.083       .  S
C653        C654   1.405       .  A
C654       C1993   1.411       .  A
C654        O658   1.372       .  S
O656        H660   0.992       .  S
O658        H659   0.992       .  S
C661       C2006   1.407   1_455  A
C661        C666   1.411       .  A
C662        H667   1.084       .  S
C662       C2005   1.407       .  A
C662        C663   1.398       .  A
C663        C664   1.408       .  A
C663        O668   1.372       .  S
C664       C2009   1.406       .  A
C665        H669   1.084       .  S
C665       C2008   1.406       .  A
C665        C666   1.406       .  A
C666        O670   1.371       .  S
O668        H672   0.992       .  S
O670        H671   0.992       .  S
O673        C708   1.237       .  S
O673       Mg681   2.153       .  S
C674        O687   1.235       .  S
C674        O711   1.271       .  A
C674        H713   1.081       .  S
Mg675       O704   2.151       .  S
Mg675       O719   2.276   1_565  S
Mg675       O715   2.274       .  S
Mg675      O2030   2.307       .  S
O676        C697   1.236       .  S
O676       Mg718   2.165       .  S
O676      Mg2045   2.168   1_455  S
O677        C708   1.273       .  A
O677       Mg701   2.315       .  S
C678        O680   1.273       .  A
C678        O692   1.276       .  A
C678        C952   1.481       .  S
O679        C707   1.270       .  A
O680       Mg712   2.281       .  S
Mg681       O687   2.153       .  S
Mg681       O695   2.274       .  S
Mg681       O683   2.328       .  S
C682        O688   1.277       .  A
C682        C961   1.476       .  S
O683        C690   1.277       .  A
H684        C697   1.081       .  S
C685        O699   1.235       .  S
C685        O700   1.270       .  A
C685        H710   1.081       .  S
O686        C709   1.270       .  A
O686      Mg2019   2.306   1_455  S
O687       Mg701   2.139       .  S
O688       Mg718   2.320       .  S
C689       O2046   1.274       .  A
C689        O694   1.273       .  A
C689       C1000   1.481       .  S
C690        O717   1.271       .  A
C690        C940   1.487       .  S
Mg691       O698   2.152       .  S
Mg691       O699   2.164       .  S
Mg691       O692   2.310       .  S
Mg691       O720   2.278       .  S
O693        C697   1.271       .  A
O694       Mg701   2.289       .  S
O696        C716   1.275   1_455  A
O696       Mg712   2.315       .  S
O698        C709   1.235       .  S
O698       Mg712   2.151       .  S
O700       Mg712   2.302       .  S
Mg701      O2020   2.168       .  S
Mg701       O717   2.286       .  S
O702       C2033   1.274       .  A
O702       Mg718   2.287       .  S
H703        C708   1.081       .  S
O704        C707   1.235       .  S
O704      Mg2056   2.161       .  S
H705        C707   1.081       .  S
H706        C709   1.081       .  S
O711      Mg2062   2.308       .  S
Mg712      O2048   2.161   1_455  S
C714        O719   1.272       .  A
C714        C973   1.474       .  S
O715       C2060   1.270       .  A
C716       O2059   1.270       .  A
C716        C985   1.478       .  S
Mg718      O2055   2.308   1_455  S
O721        C756   1.234       .  S
O721       Mg723   2.138   1_655  S
O721      Mg2073   2.166       .  S
C722       O1071   1.237       .  S
C722        O759   1.272       .  A
C722        H761   1.081       .  S
Mg723      O1088   2.155   1_554  S
Mg723       O767   2.266       .  S
Mg723       O763   2.270       .  S
Mg723       O734   2.299       .  S
O724       C2089   1.233       .  S
O724      Mg1102   2.150   1_554  S
O724       Mg749   2.151       .  S
O725       C2100   1.268       .  A
O725       Mg749   2.289       .  S
C726        O728   1.270       .  A
C726        O740   1.278       .  A
C726        C913   1.488       .  S
O727       C1091   1.269   1_554  A
O727       Mg729   2.299       .  S
O728       Mg760   2.244       .  S
Mg729      O2065   2.166       .  S
Mg729       O735   2.170       .  S
Mg729       O743   2.326       .  S
Mg729       O731   2.319       .  S
C730        O768   1.275       .  A
C730       O2080   1.275   1_455  A
C730        C997   1.488       .  S
O731        C738   1.278       .  A
H732        C745   1.081       .  S
C733        O747   1.233       .  S
C733       O2092   1.267       .  A
C733        H758   1.081       .  S
O734        C757   1.270       .  A
O735       C1058   1.237   1_554  S
O735       Mg749   2.166       .  S
O736       C2074   1.275       .  A
O736       Mg766   2.300       .  S
C737        O750   1.271       .  A
C737       O1078   1.272       .  A
C737        C892   1.480       .  S
C738        O765   1.272       .  A
C738        C925   1.487       .  S
Mg739       O746   2.157       .  S
Mg739      O2091   2.175   1_455  S
Mg739       O740   2.323       .  S
Mg739       O741   2.299       .  S
Mg739       O768   2.287       .  S
O741       C1081   1.268   1_455  A
O742       C1073   1.274   1_554  A
O742       Mg749   2.297       .  S
O743        C762   1.279       .  A
O744       C1100   1.273       .  A
O744       Mg760   2.287       .  S
C745       O2068   1.233       .  S
C745       O1077   1.267   1_654  A
O746       C1093   1.236       .  S
O746       Mg760   2.170       .  S
O747      Mg2083   2.175       .  S
O747       Mg766   2.145       .  S
O748       C2077   1.267   1_455  A
O748       Mg760   2.292       .  S
Mg749       O765   2.252       .  S
O750       Mg766   2.264       .  S
H751        C756   1.081   1_455  S
O752       C2099   1.234   1_455  S
O752      Mg1059   2.157       .  S
O752       Mg760   2.140       .  S
H753        C755   1.081       .  S
H754        C757   1.081       .  S
C755       O2096   1.234       .  S
C755       O1063   1.269       .  A
C756       O2069   1.268       .  A
C757       O1082   1.236   1_554  S
O759       Mg766   2.311       .  S
C762       O2111   1.270       .  A
C762        C988   1.498       .  S
O763        C764   1.270       .  A
C764       O1080   1.273   1_554  A
C764        C901   1.481       .  S
Mg766      O1060   2.150       .  S
O767       C2106   1.270   1_455  A
O769        C804   1.233       .  S
O769       Mg771   2.135       .  S
O769       Mg777   2.161       .  S
C770        O783   1.236       .  S
C770        O807   1.271       .  A
C770        H809   1.081       .  S
Mg771       O800   2.156       .  S
Mg771       O815   2.277       .  S
Mg771       O811   2.259       .  S
Mg771       O782   2.294       .  S
O772        C793   1.234       .  S
O772       Mg814   2.155       .  S
O772       Mg797   2.152       .  S
O773        C804   1.267       .  A
O773       Mg797   2.290       .  S
C774        O776   1.269       .  A
C774        O788   1.278       .  A
C774        C865   1.479       .  S
O775        C803   1.268       .  A
O775       Mg777   2.297       .  S
O776       Mg808   2.236       .  S
Mg777       O783   2.180       .  S
Mg777       O791   2.341       .  S
Mg777       O779   2.318       .  S
C778        O816   1.276       .  A
C778        O784   1.274       .  A
C778        C949   1.491       .  S
O779        C786   1.279       .  A
H780        C793   1.081       .  S
C781        O795   1.234       .  S
C781        O796   1.267       .  A
C781        H806   1.081       .  S
O782        C805   1.270       .  A
O783       Mg797   2.181       .  S
O784       Mg814   2.294       .  S
C785        O798   1.269       .  A
C785        O790   1.275       .  A
C785        C916   1.486       .  S
C786        O813   1.271       .  A
C786        C877   1.479       .  S
Mg787       O794   2.153       .  S
Mg787       O795   2.162       .  S
Mg787       O788   2.314       .  S
Mg787       O789   2.302       .  S
Mg787       O816   2.293       .  S
O789        C793   1.269       .  A
O790       Mg797   2.307       .  S
O791        C810   1.282       .  A
O792        C812   1.273       .  A
O792       Mg808   2.288       .  S
O794        C805   1.236       .  S
O794       Mg808   2.173       .  S
O795       Mg814   2.133       .  S
O796       Mg808   2.289       .  S
Mg797       O813   2.247       .  S
O798       Mg814   2.252       .  S
H799        C804   1.081       .  S
O800        C803   1.234       .  S
O800       Mg808   2.139       .  S
H801        C803   1.081       .  S
H802        C805   1.081       .  S
O807       Mg814   2.306       .  S
C810        O815   1.271       .  A
C810        C937   1.503       .  S
O811        C812   1.270       .  A
C812        C928   1.483       .  S
O817        C852   1.237       .  S
O817       Mg825   2.166       .  S
C818        O831   1.234       .  S
C818        O855   1.270       .  A
C818        H857   1.081       .  S
Mg819       O848   2.149       .  S
Mg819       O863   2.322       .  S
Mg819       O859   2.289       .  S
Mg819      O1166   2.305   1_554  S
O820        C841   1.235       .  S
O820       Mg862   2.163       .  S
O820      Mg1181   2.161       .  S
O821        C852   1.272       .  A
O821       Mg845   2.312       .  S
C822        O824   1.268       .  A
C822        O836   1.272       .  A
C822        C880   1.475       .  S
O823        C851   1.268       .  A
O824       Mg856   2.243       .  S
Mg825       O831   2.168       .  S
Mg825       O839   2.271       .  S
Mg825       O827   2.292       .  S
C826        O832   1.278       .  A
C826        C964   1.494       .  S
O827        C834   1.271       .  A
H828        C841   1.081       .  S
C829        O843   1.236       .  S
C829        O844   1.270       .  A
C829        H854   1.081       .  S
O830        C853   1.270       .  A
O830      Mg1155   2.305       .  S
O831       Mg845   2.143       .  S
O832       Mg862   2.327       .  S
C833       O1182   1.273   1_554  A
C833        O838   1.275       .  A
C833        C904   1.484       .  S
C834        O861   1.269       .  A
C834        C868   1.476       .  S
Mg835       O842   2.152       .  S
Mg835       O843   2.153       .  S
Mg835       O836   2.301       .  S
Mg835       O864   2.259       .  S
O837        C841   1.270       .  A
O838       Mg845   2.317       .  S
O840        C860   1.270       .  A
O840       Mg856   2.279       .  S
O842        C853   1.235       .  S
O842       Mg856   2.150       .  S
O844       Mg856   2.297       .  S
Mg845      O1156   2.157   1_554  S
Mg845       O861   2.251       .  S
O846       C1169   1.273       .  A
O846       Mg862   2.262       .  S
H847        C852   1.081       .  S
O848        C851   1.234       .  S
O848      Mg1192   2.132   1_554  S
H849        C851   1.081       .  S
H850        C853   1.081       .  S
O855      Mg1198   2.310   1_554  S
Mg856      O1184   2.143       .  S
C858        O863   1.277       .  A
C858        C976   1.486       .  S
O859       C1196   1.275   1_554  A
C860       O1195   1.274       .  A
C860        C889   1.477       .  S
Mg862      O1191   2.307       .  S
C865        C866   1.403       .  A
C865        C870   1.412       .  A
C866        H871   1.084       .  S
C866        C867   1.397       .  A
C867        C868   1.411       .  A
C867        O872   1.373       .  S
C868        C869   1.403       .  A
C869        H873   1.084       .  S
C869        C870   1.400       .  A
C870        O874   1.372       .  S
O872        H876   0.992       .  S
O874        H875   0.992       .  S
C877        C878   1.407       .  A
C877        C882   1.410       .  A
C878        H883   1.083       .  S
C878        C879   1.402       .  A
C879        C880   1.408       .  A
C879        O884   1.372       .  S
C880        C881   1.403       .  A
C881        H885   1.084       .  S
C881        C882   1.397       .  A
C882        O886   1.372       .  S
O884        H888   0.992       .  S
O886        H887   0.992       .  S
C889        C890   1.401       .  A
C889        C894   1.412       .  A
C890        H895   1.084       .  S
C890        C891   1.398       .  A
C891        C892   1.414       .  A
C891        O896   1.372       .  S
C892        C893   1.403       .  A
C893        H897   1.084       .  S
C893        C894   1.402       .  A
C894        O898   1.372       .  S
O896        H900   0.992       .  S
O898       H1235   0.992       .  S
H899       O1234   0.992       .  S
C901        C902   1.404   1_554  A
C901        C906   1.410       .  A
C902        H907   1.084       .  S
C902        C903   1.395       .  A
C903        C904   1.409   1_556  A
C903        O908   1.372       .  S
C904        C905   1.409       .  A
C905        H909   1.083       .  S
C905        C906   1.407       .  A
C906        O910   1.371       .  S
O908        H912   0.992       .  S
O910       H1247   0.992       .  S
H911       O1246   0.992       .  S
C913        C914   1.408       .  A
C913        C918   1.412       .  A
C914        H919   1.083       .  S
C914        C915   1.400       .  A
C915        C916   1.410       .  A
C915        O920   1.372       .  S
C916        C917   1.407       .  A
C917        H921   1.084       .  S
C917        C918   1.402       .  A
C918        O922   1.372       .  S
O920        H924   0.992       .  S
O922        H923   0.992       .  S
C925        C926   1.408       .  A
C925        C930   1.411       .  A
C926        H931   1.083       .  S
C926        C927   1.401       .  A
C927        C928   1.410       .  A
C927        O932   1.372       .  S
C928        C929   1.406       .  A
C929        H933   1.084       .  S
C929        C930   1.399       .  A
C930        O934   1.372       .  S
O932        H936   0.992       .  S
O934        H935   0.992       .  S
C937        C938   1.407       .  A
C937        C942   1.423       .  A
C938        H943   1.083       .  S
C938        C939   1.409       .  A
C939        C940   1.413       .  A
C939        O944   1.372       .  S
C940        C941   1.398       .  A
C941        H945   1.084       .  S
C941        C942   1.403       .  A
C942        O946   1.372       .  S
O944        H948   0.992       .  S
O946        H947   0.992       .  S
C949        C950   1.406       .  A
C949        C954   1.417       .  A
C950        H955   1.083       .  S
C950        C951   1.405       .  A
C951        C952   1.411       .  A
C951        O956   1.372       .  S
C952        C953   1.401       .  A
C953        H957   1.084       .  S
C953        C954   1.400       .  A
C954        O958   1.372       .  S
O956        H960   0.992       .  S
O958        H959   0.992       .  S
C961        C962   1.402       .  A
C962        H967   1.084       .  S
C962        C963   1.402       .  A
C963        O968   1.371       .  S
C964        C965   1.413       .  A
C965        H969   1.083   1_565  S
C965        C966   1.405       .  A
C966        O970   1.371   1_565  S
O968        H972   0.992       .  S
O970        H971   0.991       .  S
C973        C978   1.407       .  A
C974        H979   1.084       .  S
C974        C975   1.400       .  A
C975        C976   1.416       .  A
C975        O980   1.372       .  S
C977        H981   1.084       .  S
C977        C978   1.395       .  A
C978        O982   1.373       .  S
O980        H984   0.992       .  S
O982        H983   0.992       .  S
C985        C986   1.396   1_655  A
C985       C2334   1.411       .  A
C986        H991   1.084       .  S
C986        C987   1.400       .  A
C987       C2332   1.423   1_455  A
C987        O992   1.372       .  S
C988       C2331   1.423       .  A
C988        C989   1.407       .  A
C989        H993   1.083       .  S
C989        C990   1.406       .  A
C990       C2329   1.411       .  A
C990        O994   1.372       .  S
O992        H996   0.992       .  S
O994        H995   0.992       .  S
C997       C2342   1.408   1_455  A
C997       C1002   1.411       .  A
C998       H1003   1.084       .  S
C998       C2341   1.408       .  A
C998        C999   1.399       .  A
C999       C1000   1.409       .  A
C999       O1004   1.372       .  S
C1000      C2345   1.405       .  A
C1001      H1005   1.084       .  S
C1001      C2344   1.405       .  A
C1001      C1002   1.405       .  A
C1002      O1006   1.371       .  S
O1004      H1008   0.992       .  S
O1006      H1007   0.992       .  S
O1009      C1044   1.236       .  S
O1009     Mg1017   2.155       .  S
C1010      O1023   1.236       .  S
C1010      O1047   1.272       .  A
C1010      H1049   1.081       .  S
Mg1011     O1040   2.158       .  S
Mg1011     O1055   2.279       .  S
Mg1011     O1051   2.268       .  S
Mg1011     O2366   2.304       .  S
O1012      C1033   1.236       .  S
O1012     Mg1054   2.157       .  S
O1012     Mg2381   2.162   1_455  S
O1013      C1044   1.272       .  A
O1013     Mg1037   2.310       .  S
C1014      O1016   1.273       .  A
C1014      O1028   1.275       .  A
C1014      C1288   1.483       .  S
O1015      C1043   1.270       .  A
O1016     Mg1048   2.282       .  S
Mg1017     O1023   2.156       .  S
Mg1017     O1031   2.279       .  S
Mg1017     O1019   2.331       .  S
C1018      O1024   1.278       .  A
C1018      C1297   1.486       .  S
O1019      C1026   1.277       .  A
H1020      C1033   1.081       .  S
C1021      O1035   1.236       .  S
C1021      O1036   1.272       .  A
C1021      H1046   1.081       .  S
O1022      C1045   1.270       .  A
O1022     Mg2355   2.304   1_455  S
O1023     Mg1037   2.144       .  S
O1024     Mg1054   2.324       .  S
C1025      O2382   1.274       .  A
C1025      O1030   1.273       .  A
C1025      C1336   1.484       .  S
C1026      O1053   1.270       .  A
C1026      C1276   1.484       .  S
Mg1027     O1034   2.150       .  S
Mg1027     O1035   2.158       .  S
Mg1027     O1028   2.305       .  S
Mg1027     O1056   2.269       .  S
O1029      C1033   1.271       .  A
O1030     Mg1037   2.291       .  S
O1032      C1052   1.276   1_455  A
O1032     Mg1048   2.317       .  S
O1034      C1045   1.234       .  S
O1034     Mg1048   2.146       .  S
O1036     Mg1048   2.310       .  S
Mg1037     O2356   2.162       .  S
Mg1037     O1053   2.272       .  S
O1038      C2369   1.274       .  A
O1038     Mg1054   2.291       .  S
H1039      C1044   1.081       .  S
O1040      C1043   1.235       .  S
O1040     Mg2392   2.160       .  S
H1041      C1043   1.081       .  S
H1042      C1045   1.081       .  S
O1047     Mg2398   2.310       .  S
Mg1048     O2384   2.160   1_455  S
C1050      O1055   1.272   1_545  A
C1050      C1309   1.474       .  S
O1051      C2396   1.270       .  A
C1052      O2395   1.270       .  A
C1052      C1321   1.477       .  S
Mg1054     O2391   2.310   1_455  S
O1057      C1092   1.234       .  S
O1057     Mg1059   2.142   1_655  S
O1057     Mg2409   2.163       .  S
C1058      O1095   1.272       .  A
C1058      H1097   1.081       .  S
Mg1059     O1103   2.273       .  S
Mg1059     O1099   2.277       .  S
Mg1059     O1070   2.297       .  S
O1060      C2425   1.233       .  S
O1060     Mg1085   2.154       .  S
O1061      C2436   1.268       .  A
O1061     Mg1085   2.290       .  S
C1062      O1064   1.270       .  A
C1062      O1076   1.278       .  A
C1062      C1249   1.488       .  S
O1063     Mg1065   2.301       .  S
O1064     Mg1096   2.247       .  S
Mg1065     O2401   2.163       .  S
Mg1065     O1071   2.167       .  S
Mg1065     O1079   2.315       .  S
Mg1065     O1067   2.329       .  S
C1066      O1104   1.276       .  A
C1066      O2416   1.274   1_455  A
C1066      C1333   1.488       .  S
O1067      C1074   1.279       .  A
H1068      C1081   1.081       .  S
C1069      O1083   1.234       .  S
C1069      O2428   1.268       .  A
C1069      H1094   1.081       .  S
O1070      C1093   1.270       .  A
O1071     Mg1085   2.166       .  S
O1072      C2410   1.274       .  A
O1072     Mg1102   2.293       .  S
C1073      O1086   1.270       .  A
C1073      C1228   1.479       .  S
C1074      O1101   1.271       .  A
C1074      C1261   1.491       .  S
Mg1075     O1082   2.156       .  S
Mg1075     O2427   2.180   1_455  S
Mg1075     O1076   2.321       .  S
Mg1075     O1077   2.297       .  S
Mg1075     O1104   2.291       .  S
O1078     Mg1085   2.288       .  S
O1079      C1098   1.279       .  A
O1080     Mg1096   2.284       .  S
C1081      O2404   1.233       .  S
O1082     Mg1096   2.166       .  S
O1083     Mg2419   2.180       .  S
O1083     Mg1102   2.145       .  S
O1084      C2413   1.268   1_455  A
O1084     Mg1096   2.292       .  S
Mg1085     O1101   2.252       .  S
O1086     Mg1102   2.260       .  S
H1087      C1092   1.081   1_455  S
O1088      C2435   1.235   1_455  S
O1088     Mg1096   2.142       .  S
H1089      C1091   1.081       .  S
H1090      C1093   1.081       .  S
C1091      O2432   1.235       .  S
C1092      O2405   1.268       .  A
O1095     Mg1102   2.311       .  S
C1098      O2447   1.271       .  A
C1098      C1324   1.494       .  S
O1099      C1100   1.270       .  A
C1100      C1237   1.482       .  S
O1103      C2442   1.271   1_455  A
O1105      C1140   1.233       .  S
O1105     Mg1107   2.135       .  S
O1105     Mg1113   2.162       .  S
C1106      O1119   1.237       .  S
C1106      O1143   1.271       .  A
C1106      H1145   1.081       .  S
Mg1107     O1136   2.153       .  S
Mg1107     O1151   2.270       .  S
Mg1107     O1147   2.265       .  S
Mg1107     O1118   2.294       .  S
O1108      C1129   1.235       .  S
O1108     Mg1150   2.151       .  S
O1108     Mg1133   2.148       .  S
O1109      C1140   1.267       .  A
O1109     Mg1133   2.288       .  S
C1110      O1112   1.268       .  A
C1110      O1124   1.280       .  A
C1110      C1201   1.480       .  S
O1111      C1139   1.268       .  A
O1111     Mg1113   2.295       .  S
O1112     Mg1144   2.227       .  S
Mg1113     O1119   2.176       .  S
Mg1113     O1127   2.332       .  S
Mg1113     O1115   2.311       .  S
C1114      O1152   1.277       .  A
C1114      O1120   1.273       .  A
C1114      C1285   1.489       .  S
O1115      C1122   1.278       .  A
H1116      C1129   1.081       .  S
C1117      O1131   1.233       .  S
C1117      O1132   1.267       .  A
C1117      H1142   1.081       .  S
O1118      C1141   1.270       .  A
O1119     Mg1133   2.182       .  S
O1120     Mg1150   2.284       .  S
C1121      O1134   1.269       .  A
C1121      O1126   1.275       .  A
C1121      C1252   1.487       .  S
C1122      O1149   1.270       .  A
C1122      C1213   1.473       .  S
Mg1123     O1130   2.156       .  S
Mg1123     O1131   2.163       .  S
Mg1123     O1124   2.329       .  S
Mg1123     O1125   2.304       .  S
Mg1123     O1152   2.301       .  S
O1125      C1129   1.270       .  A
O1126     Mg1133   2.309       .  S
O1127      C1146   1.281       .  A
O1128      C1148   1.273       .  A
O1128     Mg1144   2.290       .  S
O1130      C1141   1.236       .  S
O1130     Mg1144   2.174       .  S
O1131     Mg1150   2.136       .  S
O1132     Mg1144   2.289       .  S
Mg1133     O1149   2.238       .  S
O1134     Mg1150   2.254       .  S
H1135      C1140   1.081       .  S
O1136      C1139   1.234       .  S
O1136     Mg1144   2.132       .  S
H1137      C1139   1.081       .  S
H1138      C1141   1.081       .  S
O1143     Mg1150   2.304       .  S
C1146      O1151   1.271       .  A
C1146      C1273   1.499       .  S
O1147      C1148   1.270       .  A
C1148      C1264   1.484       .  S
O1153      C1188   1.237       .  S
O1153     Mg1161   2.165       .  S
C1154      O1167   1.234       .  S
C1154      O1191   1.270       .  A
C1154      H1193   1.081       .  S
Mg1155     O1184   2.150       .  S
Mg1155     O1199   2.328       .  S
Mg1155     O1195   2.281       .  S
O1156      C1177   1.235       .  S
O1156     Mg1198   2.159       .  S
O1157      C1188   1.272       .  A
O1157     Mg1181   2.314       .  S
C1158      O1160   1.267       .  A
C1158      O1172   1.271       .  A
C1158      C1216   1.474       .  S
O1159      C1187   1.269       .  A
O1160     Mg1192   2.231       .  S
Mg1161     O1167   2.167       .  S
Mg1161     O1175   2.269       .  S
Mg1161     O1163   2.298       .  S
C1162      O1168   1.278       .  A
C1162      C1300   1.494       .  S
O1163      C1170   1.272       .  A
H1164      C1177   1.081       .  S
C1165      O1179   1.236       .  S
C1165      O1180   1.270       .  A
C1165      H1190   1.081       .  S
O1166      C1189   1.270       .  A
O1167     Mg1181   2.144       .  S
O1168     Mg1198   2.330       .  S
C1169      O1174   1.276       .  A
C1169      C1240   1.488       .  S
C1170      O1197   1.270       .  A
C1170      C1204   1.477       .  S
Mg1171     O1178   2.151       .  S
Mg1171     O1179   2.148       .  S
Mg1171     O1172   2.290       .  S
Mg1171     O1200   2.244       .  S
O1173      C1177   1.269       .  A
O1174     Mg1181   2.323       .  S
O1176      C1196   1.270       .  A
O1176     Mg1192   2.279       .  S
O1178      C1189   1.235       .  S
O1178     Mg1192   2.150       .  S
O1180     Mg1192   2.298       .  S
Mg1181     O1197   2.254       .  S
O1182     Mg1198   2.262       .  S
H1183      C1188   1.081       .  S
O1184      C1187   1.235       .  S
H1185      C1187   1.081       .  S
H1186      C1189   1.081       .  S
C1194      O1199   1.277       .  A
C1194      C1312   1.480       .  S
C1196      C1225   1.481       .  S
C1201      C1202   1.402       .  A
C1201      C1206   1.413       .  A
C1202      H1207   1.084       .  S
C1202      C1203   1.398       .  A
C1203      C1204   1.411       .  A
C1203      O1208   1.372       .  S
C1204      C1205   1.402       .  A
C1205      H1209   1.084       .  S
C1205      C1206   1.401       .  A
C1206      O1210   1.372       .  S
O1208      H1212   0.992       .  S
O1210      H1211   0.992       .  S
C1213      C1214   1.405       .  A
C1213      C1218   1.408       .  A
C1214      H1219   1.084       .  S
C1214      C1215   1.400       .  A
C1215      C1216   1.409       .  A
C1215      O1220   1.372       .  S
C1216      C1217   1.404       .  A
C1217      H1221   1.084       .  S
C1217      C1218   1.395       .  A
C1218      O1222   1.372       .  S
O1220      H1224   0.992       .  S
O1222      H1223   0.992       .  S
C1225      C1226   1.401   1_556  A
C1225      C1230   1.414       .  A
C1226      H1231   1.084       .  S
C1226      C1227   1.398       .  A
C1227      C1228   1.412   1_554  A
C1227      O1232   1.372       .  S
C1228      C1229   1.403       .  A
C1229      H1233   1.084       .  S
C1229      C1230   1.403       .  A
C1230      O1234   1.372       .  S
O1232      H1236   0.992       .  S
C1237      C1238   1.403       .  A
C1237      C1242   1.409       .  A
C1238      H1243   1.084       .  S
C1238      C1239   1.396       .  A
C1239      C1240   1.411       .  A
C1239      O1244   1.372       .  S
C1240      C1241   1.410       .  A
C1241      H1245   1.083       .  S
C1241      C1242   1.408       .  A
C1242      O1246   1.371       .  S
O1244      H1248   0.992       .  S
C1249      C1250   1.407       .  A
C1249      C1254   1.412       .  A
C1250      H1255   1.083       .  S
C1250      C1251   1.401       .  A
C1251      C1252   1.411       .  A
C1251      O1256   1.371       .  S
C1252      C1253   1.407       .  A
C1253      H1257   1.084       .  S
C1253      C1254   1.402       .  A
C1254      O1258   1.372       .  S
O1256      H1260   0.992       .  S
O1258      H1259   0.992       .  S
C1261      C1262   1.410       .  A
C1261      C1266   1.412       .  A
C1262      H1267   1.083       .  S
C1262      C1263   1.402       .  A
C1263      C1264   1.409       .  A
C1263      O1268   1.372       .  S
C1264      C1265   1.406       .  A
C1265      H1269   1.084       .  S
C1265      C1266   1.400       .  A
C1266      O1270   1.372       .  S
O1268      H1272   0.992       .  S
O1270      H1271   0.992       .  S
C1273      C1274   1.406       .  A
C1273      C1278   1.423       .  A
C1274      H1279   1.083       .  S
C1274      C1275   1.407       .  A
C1275      C1276   1.413       .  A
C1275      O1280   1.372       .  S
C1276      C1277   1.398       .  A
C1277      H1281   1.084       .  S
C1277      C1278   1.402       .  A
C1278      O1282   1.372       .  S
O1280      H1284   0.992       .  S
O1282      H1283   0.992       .  S
C1285      C1286   1.405       .  A
C1285      C1290   1.417       .  A
C1286      H1291   1.083       .  S
C1286      C1287   1.406       .  A
C1287      C1288   1.412       .  A
C1287      O1292   1.372       .  S
C1288      C1289   1.401       .  A
C1289      H1293   1.084       .  S
C1289      C1290   1.399       .  A
C1290      O1294   1.372       .  S
O1292      H1296   0.992       .  S
O1294      H1295   0.992       .  S
C1297      C1298   1.410       .  A
C1298      H1303   1.084       .  S
C1298      C1299   1.409       .  A
C1299      O1304   1.371       .  S
C1300      C1301   1.413       .  A
C1301      H1305   1.083   1_565  S
C1301      C1302   1.402   1_565  A
C1302      O1306   1.371       .  S
O1304      H1308   0.992       .  S
O1306      H1307   0.992       .  S
C1309      C1314   1.407       .  A
C1310      H1315   1.084       .  S
C1310      C1311   1.399       .  A
C1311      C1312   1.412       .  A
C1311      O1316   1.372       .  S
C1313      H1317   1.084       .  S
C1313      C1314   1.396       .  A
C1314      O1318   1.373       .  S
O1316      H1320   0.992       .  S
O1318      H1319   0.992       .  S
C1321      C1322   1.397   1_655  A
C1321      C2670   1.411       .  A
C1322      H1327   1.084       .  S
C1322      C1323   1.400       .  A
C1323      C2668   1.421   1_455  A
C1323      O1328   1.372       .  S
C1324      C2667   1.421       .  A
C1324      C1325   1.406       .  A
C1325      H1329   1.083       .  S
C1325      C1326   1.405       .  A
C1326      C2665   1.411       .  A
C1326      O1330   1.372       .  S
O1328      H1332   0.992       .  S
O1330      H1331   0.992       .  S
C1333      C2678   1.407   1_455  A
C1333      C1338   1.410       .  A
C1334      H1339   1.084       .  S
C1334      C2677   1.407       .  A
C1334      C1335   1.399       .  A
C1335      C1336   1.410       .  A
C1335      O1340   1.372       .  S
C1336      C2681   1.406       .  A
C1337      H1341   1.083       .  S
C1337      C2680   1.406       .  A
C1337      C1338   1.406       .  A
C1338      O1342   1.371       .  S
O1340      H1344   0.992       .  S
O1342      H1343   0.992       .  S
O1345      C1380   1.236       .  S
O1345     Mg2019   2.160   1_545  S
O1345     Mg1353   2.173       .  S
C1346      O1359   1.234       .  S
C1346      O1383   1.270       .  A
C1346      H1385   1.081       .  S
Mg1347     O2017   2.165       .  S
Mg1347     O1376   2.140       .  S
Mg1347     O1391   2.301       .  S
Mg1347     O1387   2.275       .  S
O1348      C1369   1.236       .  S
O1348     Mg1390   2.166       .  S
O1349      C1380   1.272       .  A
O1349     Mg1373   2.309       .  S
C1350      O1352   1.271       .  A
C1350      O1364   1.276       .  A
C1350      C1624   1.480       .  S
O1351      C1379   1.271       .  A
O1351     Mg2025   2.312       .  S
O1352     Mg1384   2.271       .  S
Mg1353     O1359   2.146       .  S
Mg1353     O2023   2.304   1_545  S
Mg1353     O1367   2.278       .  S
Mg1353     O1355   2.327       .  S
C1354      O2064   1.272       .  A
C1354      O1360   1.275   1_565  A
C1354      C1633   1.475       .  S
O1355      C1362   1.277       .  A
H1356      C1369   1.081       .  S
C1357      O1371   1.235       .  S
C1357      O1372   1.270       .  A
C1357      H1382   1.081       .  S
O1358      C1381   1.272       .  A
O1359     Mg1373   2.141       .  S
O1360     Mg1390   2.304       .  S
C1361      O1366   1.273   1_455  A
C1361      C1672   1.480       .  S
C1362      O1389   1.271       .  A
C1362      C1612   1.481       .  S
Mg1363     O1370   2.157       .  S
Mg1363     O1371   2.159       .  S
Mg1363     O1364   2.315       .  S
Mg1363     O2037   2.304       .  S
Mg1363     O1392   2.278       .  S
O1365      C1369   1.270       .  A
O1365     Mg2035   2.301   1_545  S
O1366     Mg1373   2.290       .  S
O1367      C2058   1.272       .  A
O1368      C1388   1.273       .  A
O1368     Mg1384   2.308       .  S
O1370      C1381   1.237       .  S
O1370     Mg1384   2.153       .  S
O1371     Mg2062   2.152       .  S
O1372     Mg1384   2.301       .  S
Mg1373     O1389   2.276       .  S
O1374     Mg1390   2.286       .  S
H1375      C1380   1.081       .  S
O1376      C1379   1.235       .  S
H1377      C1379   1.081       .  S
H1378      C1381   1.081       .  S
C1386      O2039   1.271       .  A
C1386      O1391   1.273       .  A
C1386      C1645   1.471       .  S
C1388      C1657   1.477       .  S
Mg1390     O2043   2.154   1_545  S
O1392      C2026   1.272       .  A
O1393      C1428   1.234       .  S
O1393     Mg1395   2.144       .  S
C1394      O1743   1.238       .  S
C1394      O1431   1.273       .  A
C1394      H1433   1.081       .  S
Mg1395     O1760   2.160   1_554  S
Mg1395     O1439   2.278       .  S
Mg1395     O1435   2.274       .  S
Mg1395     O1406   2.297       .  S
O1396     Mg1774   2.149       .  S
O1396     Mg1421   2.148   1_556  S
O1397     Mg1421   2.292       .  S
C1398      O1400   1.270       .  A
C1398      O1412   1.279       .  A
C1398      C1585   1.489       .  S
O1399      C1763   1.269   1_554  A
O1399     Mg1401   2.302       .  S
O1400     Mg1432   2.243       .  S
Mg1401     O1407   2.169       .  S
Mg1401     O1415   2.311       .  S
Mg1401     O1403   2.323       .  S
C1402      O1440   1.277       .  A
C1402      C1669   1.488       .  S
O1403      C1410   1.278       .  A
H1404      C1417   1.081       .  S
C1405      O1419   1.234       .  S
C1405      H1430   1.081       .  S
O1406      C1429   1.270       .  A
O1407      C1730   1.237   1_554  S
O1407     Mg1421   2.166       .  S
O1408     Mg1438   2.290       .  S
C1409      O1422   1.269       .  A
C1409      O1750   1.274       .  A
C1409      C1564   1.482       .  S
C1410      O1437   1.272       .  A
C1410      C1597   1.486       .  S
Mg1411     O1418   2.152       .  S
Mg1411     O1412   2.326       .  S
Mg1411     O1413   2.296       .  S
Mg1411     O1440   2.296       .  S
O1413      C1753   1.268       .  A
O1414      C1745   1.274   1_554  A
O1414     Mg1421   2.301       .  S
O1415      C1434   1.278       .  A
O1416      C1772   1.271       .  A
O1416     Mg1432   2.275       .  S
C1417      O1749   1.268   1_554  A
O1418      C1765   1.236       .  S
O1418     Mg1432   2.164       .  S
O1419     Mg1438   2.139       .  S
O1420     Mg1432   2.288       .  S
Mg1421     O1437   2.251       .  S
O1422     Mg1438   2.257       .  S
H1423      C1428   1.081       .  S
O1424     Mg1731   2.158       .  S
O1424     Mg1432   2.146       .  S
H1425      C1427   1.081       .  S
H1426      C1429   1.081       .  S
C1427      O1735   1.269       .  A
C1429      O1754   1.236   1_554  S
O1431     Mg1438   2.313       .  S
C1434      C1660   1.496       .  S
O1435      C1436   1.270       .  A
C1436      O1752   1.272   1_554  A
C1436      C1573   1.481       .  S
Mg1438     O1732   2.146       .  S
O1441      C1476   1.234       .  S
O1441     Mg1443   2.136       .  S
O1441     Mg1449   2.162       .  S
C1442      O1455   1.236       .  S
C1442      O1479   1.271       .  A
C1442      H1481   1.081       .  S
Mg1443     O1472   2.151       .  S
Mg1443     O1487   2.282       .  S
Mg1443     O1483   2.262       .  S
Mg1443     O1454   2.300       .  S
O1444      C1465   1.234       .  S
O1444     Mg1486   2.156       .  S
O1444     Mg1469   2.147       .  S
O1445      C1476   1.267       .  A
O1445     Mg1469   2.290       .  S
C1446      O1448   1.268       .  A
C1446      O1460   1.278       .  A
C1446      C1537   1.479       .  S
O1447      C1475   1.268       .  A
O1447     Mg1449   2.297       .  S
O1448     Mg1480   2.227       .  S
Mg1449     O1455   2.167       .  S
Mg1449     O1463   2.322       .  S
Mg1449     O1451   2.317       .  S
C1450      O1488   1.277       .  A
C1450      O1456   1.273       .  A
C1450      C1621   1.490       .  S
O1451      C1458   1.279       .  A
H1452      C1465   1.081       .  S
C1453      O1467   1.233       .  S
C1453      O1468   1.267       .  A
C1453      H1478   1.081       .  S
O1454      C1477   1.271       .  A
O1455     Mg1469   2.179       .  S
O1456     Mg1486   2.287       .  S
C1457      O1470   1.269       .  A
C1457      O1462   1.274       .  A
C1457      C1588   1.484       .  S
C1458      O1485   1.270       .  A
C1458      C1549   1.476       .  S
Mg1459     O1466   2.159       .  S
Mg1459     O1467   2.161       .  S
Mg1459     O1460   2.318       .  S
Mg1459     O1461   2.300       .  S
Mg1459     O1488   2.300       .  S
O1461      C1465   1.269       .  A
O1462     Mg1469   2.298       .  S
O1463      C1482   1.280       .  A
O1464      C1484   1.272       .  A
O1464     Mg1480   2.288       .  S
O1466      C1477   1.237       .  S
O1466     Mg1480   2.173       .  S
O1467     Mg1486   2.133       .  S
O1468     Mg1480   2.288       .  S
Mg1469     O1485   2.243       .  S
O1470     Mg1486   2.255       .  S
H1471      C1476   1.081       .  S
O1472      C1475   1.234       .  S
O1472     Mg1480   2.138       .  S
H1473      C1475   1.081       .  S
H1474      C1477   1.081       .  S
O1479     Mg1486   2.300       .  S
C1482      O1487   1.272       .  A
C1482      C1609   1.499       .  S
O1483      C1484   1.270       .  A
C1484      C1600   1.485       .  S
O1489      C1524   1.238       .  S
O1489     Mg2163   2.153       .  S
O1489     Mg1497   2.151       .  S
C1490      O1503   1.234       .  S
C1490      O1527   1.270       .  A
C1490      H1529   1.081       .  S
Mg1491     O2161   2.154   1_545  S
Mg1491     O1520   2.146       .  S
Mg1491     O1535   2.298       .  S
Mg1491     O1531   2.289       .  S
Mg1491     O1838   2.302   1_554  S
O1492      C1513   1.235       .  S
O1492     Mg1534   2.163       .  S
O1492     Mg1853   2.158       .  S
O1493      C1524   1.274       .  A
O1493     Mg1517   2.318       .  S
C1494      O1496   1.268       .  A
C1494      O1508   1.273       .  A
C1494      C1552   1.477       .  S
O1495      C1523   1.267       .  A
O1495     Mg2169   2.288   1_545  S
O1496     Mg1528   2.235       .  S
Mg1497     O1503   2.164       .  S
Mg1497     O2167   2.291       .  S
Mg1497     O1511   2.252       .  S
Mg1497     O1499   2.285       .  S
C1498      O2208   1.271       .  A
C1498      O1504   1.278       .  A
C1498      C1636   1.496       .  S
O1499      C1506   1.269       .  A
H1500      C1513   1.081       .  S
C1501      O1515   1.236       .  S
C1501      O1516   1.270       .  A
C1501      H1526   1.081       .  S
O1502      C1525   1.270       .  A
O1502     Mg1827   2.304       .  S
O1503     Mg1517   2.135       .  S
O1504     Mg1534   2.328       .  S
C1505      O1854   1.273   1_554  A
C1505      O1510   1.274       .  A
C1505      C1576   1.481       .  S
C1506      O1533   1.269       .  A
C1506      C1540   1.475       .  S
Mg1507     O1514   2.148       .  S
Mg1507     O1515   2.157       .  S
Mg1507     O1508   2.306       .  S
Mg1507     O2181   2.304   1_545  S
Mg1507     O1536   2.255       .  S
O1509      C1513   1.270       .  A
O1509     Mg2179   2.303       .  S
O1510     Mg1517   2.310       .  S
O1511      C2202   1.270       .  A
O1512      C1532   1.271       .  A
O1512     Mg1528   2.287       .  S
O1514      C1525   1.235       .  S
O1514     Mg1528   2.149       .  S
O1515     Mg2206   2.141   1_545  S
O1516     Mg1528   2.295       .  S
Mg1517     O1828   2.156   1_554  S
Mg1517     O1533   2.256       .  S
O1518      C1841   1.273       .  A
O1518     Mg1534   2.265       .  S
H1519      C1524   1.081       .  S
O1520      C1523   1.234       .  S
O1520     Mg1864   2.131   1_554  S
H1521      C1523   1.081       .  S
H1522      C1525   1.081       .  S
O1527     Mg1870   2.311   1_554  S
Mg1528     O1856   2.137       .  S
C1530      O2183   1.272   1_545  A
C1530      O1535   1.276       .  A
C1530      C1648   1.484       .  S
O1531      C1868   1.275   1_554  A
C1532      O1867   1.275       .  A
C1532      C1561   1.478       .  S
Mg1534     O2187   2.140       .  S
Mg1534     O1863   2.307       .  S
O1536      C2170   1.271   1_545  A
C1537      C1538   1.403       .  A
C1537      C1542   1.413       .  A
C1538      H1543   1.084       .  S
C1538      C1539   1.397       .  A
C1539      C1540   1.410       .  A
C1539      O1544   1.372       .  S
C1540      C1541   1.403       .  A
C1541      H1545   1.084       .  S
C1541      C1542   1.400       .  A
C1542      O1546   1.372       .  S
O1544      H1548   0.992       .  S
O1546      H1547   0.992       .  S
C1549      C1550   1.406       .  A
C1549      C1554   1.408       .  A
C1550      H1555   1.084       .  S
C1550      C1551   1.403       .  A
C1551      C1552   1.410       .  A
C1551      O1556   1.372       .  S
C1552      C1553   1.404       .  A
C1553      H1557   1.084       .  S
C1553      C1554   1.395       .  A
C1554      O1558   1.372       .  S
O1556      H1560   0.992       .  S
O1558      H1559   0.992       .  S
C1561      C1562   1.401       .  A
C1561      C1566   1.411       .  A
C1562      H1567   1.084       .  S
C1562      C1563   1.398       .  A
C1563      C1564   1.413       .  A
C1563      O1568   1.372       .  S
C1564      C1565   1.405       .  A
C1565      H1569   1.084       .  S
C1565      C1566   1.403       .  A
C1566      O1570   1.372       .  S
O1568      H1572   0.992       .  S
O1570      H1907   0.992       .  S
H1571      O1906   0.992       .  S
C1573      C1574   1.405   1_554  A
C1573      C1578   1.410       .  A
C1574      H1579   1.084       .  S
C1574      C1575   1.394       .  A
C1575      C1576   1.408   1_556  A
C1575      O1580   1.372       .  S
C1576      C1577   1.409       .  A
C1577      H1581   1.084       .  S
C1577      C1578   1.406       .  A
C1578      O1582   1.371       .  S
O1580      H1584   0.992       .  S
O1582      H1919   0.992       .  S
H1583      O1918   0.992       .  S
C1585      C1586   1.409       .  A
C1585      C1590   1.412       .  A
C1586      H1591   1.083       .  S
C1586      C1587   1.401       .  A
C1587      C1588   1.410       .  A
C1587      O1592   1.372       .  S
C1588      C1589   1.406       .  A
C1589      H1593   1.084       .  S
C1589      C1590   1.401       .  A
C1590      O1594   1.372       .  S
O1592      H1596   0.992       .  S
O1594      H1595   0.992       .  S
C1597      C1598   1.407       .  A
C1597      C1602   1.411       .  A
C1598      H1603   1.083       .  S
C1598      C1599   1.401       .  A
C1599      C1600   1.410       .  A
C1599      O1604   1.371       .  S
C1600      C1601   1.407       .  A
C1601      H1605   1.084       .  S
C1601      C1602   1.400       .  A
C1602      O1606   1.372       .  S
O1604      H1608   0.992       .  S
O1606      H1607   0.992       .  S
C1609      C1610   1.407       .  A
C1609      C1614   1.422       .  A
C1610      H1615   1.083       .  S
C1610      C1611   1.406       .  A
C1611      C1612   1.410       .  A
C1611      O1616   1.372       .  S
C1612      C1613   1.398       .  A
C1613      H1617   1.084       .  S
C1613      C1614   1.403       .  A
C1614      O1618   1.372       .  S
O1616      H1620   0.992       .  S
O1618      H1619   0.992       .  S
C1621      C1622   1.406       .  A
C1621      C1626   1.418       .  A
C1622      H1627   1.083       .  S
C1622      C1623   1.405       .  A
C1623      C1624   1.411       .  A
C1623      O1628   1.372       .  S
C1624      C1625   1.399       .  A
C1625      H1629   1.084       .  S
C1625      C1626   1.399       .  A
C1626      O1630   1.372       .  S
O1628      H1632   0.992       .  S
O1630      H1631   0.992       .  S
C1633      C1634   1.402       .  A
C1633      C2310   1.403       .  A
C1634      H1639   1.084       .  S
C1634      C1635   1.401       .  A
C1635      C2308   1.415       .  A
C1635      O1640   1.371       .  S
C1636      C2307   1.415       .  A
C1636      C1637   1.413       .  A
C1637      H1641   1.083       .  S
C1637      C1638   1.405       .  A
C1638      C2305   1.403       .  A
C1638      O1642   1.371       .  S
O1640      H1644   0.992       .  S
O1642      H1643   0.991       .  S
C1645      C2318   1.399       .  A
C1645      C1650   1.407       .  A
C1646      H1651   1.083       .  S
C1646      C2317   1.402       .  A
C1646      C1647   1.406       .  A
C1647      C1648   1.413       .  A
C1647      O1652   1.371       .  S
C1648      C2321   1.405       .  A
C1649      H1653   1.083       .  S
C1649      C2320   1.406       .  A
C1649      C1650   1.402       .  A
C1650      O1654   1.372       .  S
O1652      H1656   0.992       .  S
O1654      H1655   0.992       .  S
C1657      C1658   1.397       .  A
C1658      H1663   1.084       .  S
C1658      C1659   1.401       .  A
C1659      O1664   1.372       .  S
C1660      C1661   1.407       .  A
C1661      H1665   1.083       .  S
C1661      C1662   1.404       .  A
C1662      O1666   1.372       .  S
O1664      H1668   0.992       .  S
O1666      H1667   0.992       .  S
C1669      C1674   1.410       .  A
C1670      H1675   1.084       .  S
C1670      C1671   1.398       .  A
C1671      C1672   1.408   1_655  A
C1671      O1676   1.372       .  S
C1673      H1677   1.084       .  S
C1673      C1674   1.406       .  A
C1674      O1678   1.371       .  S
O1676      H1680   0.992       .  S
O1678      H1679   0.992       .  S
O1681      C1716   1.236       .  S
O1681     Mg2355   2.154   1_545  S
O1681     Mg1689   2.169       .  S
C1682      O1695   1.235       .  S
C1682      O1719   1.270       .  A
C1682      H1721   1.081       .  S
Mg1683     O2353   2.162       .  S
Mg1683     O1712   2.146       .  S
Mg1683     O1727   2.300       .  S
Mg1683     O1723   2.271       .  S
O1684      C1705   1.236       .  S
O1684     Mg1726   2.165       .  S
O1685      C1716   1.271       .  A
O1685     Mg1709   2.305       .  S
C1686      O1688   1.272       .  A
C1686      O1700   1.276       .  A
C1686      C1960   1.483       .  S
O1687      C1715   1.271       .  A
O1687     Mg2361   2.312       .  S
O1688     Mg1720   2.280       .  S
Mg1689     O1695   2.149       .  S
Mg1689     O2359   2.302   1_545  S
Mg1689     O1703   2.281       .  S
Mg1689     O1691   2.322       .  S
C1690      O2400   1.270       .  A
C1690      O1696   1.275   1_565  A
C1690      C1969   1.473       .  S
O1691      C1698   1.277       .  A
H1692      C1705   1.081       .  S
C1693      O1707   1.235       .  S
C1693      O1708   1.271       .  A
C1693      H1718   1.081       .  S
O1694      C1717   1.272       .  A
O1695     Mg1709   2.145       .  S
O1696     Mg1726   2.312       .  S
C1697      O1702   1.273   1_455  A
C1697      C2008   1.481       .  S
C1698      O1725   1.272       .  A
C1698      C1948   1.484       .  S
Mg1699     O1706   2.163       .  S
Mg1699     O1707   2.151       .  S
Mg1699     O1700   2.308       .  S
Mg1699     O2373   2.308       .  S
Mg1699     O1728   2.283       .  S
O1701      C1705   1.271       .  A
O1701     Mg2371   2.303   1_545  S
O1702     Mg1709   2.287       .  S
O1703      C2394   1.272       .  A
O1704      C1724   1.276       .  A
O1704     Mg1720   2.319       .  S
O1706      C1717   1.236       .  S
O1706     Mg1720   2.154       .  S
O1707     Mg2398   2.159       .  S
O1708     Mg1720   2.307       .  S
Mg1709     O1725   2.280       .  S
O1710     Mg1726   2.292       .  S
H1711      C1716   1.081       .  S
O1712      C1715   1.235       .  S
H1713      C1715   1.081       .  S
H1714      C1717   1.081       .  S
C1722      O2375   1.272       .  A
C1722      O1727   1.274       .  A
C1722      C1981   1.478       .  S
C1724      C1993   1.480       .  S
Mg1726     O2379   2.162   1_545  S
O1728      C2362   1.273       .  A
O1729      C1764   1.234       .  S
O1729     Mg1731   2.144       .  S
C1730      O1767   1.273       .  A
C1730      H1769   1.081       .  S
Mg1731     O1775   2.283       .  S
Mg1731     O1771   2.275       .  S
Mg1731     O1742   2.298       .  S
O1732     Mg1757   2.149       .  S
O1733     Mg1757   2.292       .  S
C1734      O1736   1.271       .  A
C1734      O1748   1.278       .  A
C1734      C1921   1.488       .  S
O1735     Mg1737   2.302       .  S
O1736     Mg1768   2.247       .  S
Mg1737     O1743   2.169       .  S
Mg1737     O1751   2.311       .  S
Mg1737     O1739   2.327       .  S
C1738      O1776   1.276       .  A
C1738      C2005   1.488       .  S
O1739      C1746   1.279       .  A
H1740      C1753   1.081       .  S
C1741      O1755   1.234       .  S
C1741      H1766   1.081       .  S
O1742      C1765   1.270       .  A
O1743     Mg1757   2.165       .  S
O1744     Mg1774   2.295       .  S
C1745      O1758   1.271       .  A
C1745      C1900   1.485       .  S
C1746      O1773   1.271       .  A
C1746      C1933   1.489       .  S
Mg1747     O1754   2.152       .  S
Mg1747     O1748   2.324       .  S
Mg1747     O1749   2.296       .  S
Mg1747     O1776   2.289       .  S
O1750     Mg1757   2.297       .  S
O1751      C1770   1.278       .  A
O1752     Mg1768   2.280       .  S
O1754     Mg1768   2.164       .  S
O1755     Mg1774   2.147       .  S
O1756     Mg1768   2.291       .  S
Mg1757     O1773   2.253       .  S
O1758     Mg1774   2.269       .  S
H1759      C1764   1.081       .  S
O1760     Mg1768   2.145       .  S
H1761      C1763   1.081       .  S
H1762      C1765   1.081       .  S
O1767     Mg1774   2.312       .  S
C1770      C1996   1.496       .  S
O1771      C1772   1.271       .  A
C1772      C1909   1.480       .  S
O1777      C1812   1.234       .  S
O1777     Mg1779   2.137       .  S
O1777     Mg1785   2.162       .  S
C1778      O1791   1.236       .  S
C1778      O1815   1.271       .  A
C1778      H1817   1.081       .  S
Mg1779     O1808   2.156       .  S
Mg1779     O1823   2.274       .  S
Mg1779     O1819   2.265       .  S
Mg1779     O1790   2.296       .  S
O1780      C1801   1.234       .  S
O1780     Mg1822   2.153       .  S
O1780     Mg1805   2.147       .  S
O1781      C1812   1.267       .  A
O1781     Mg1805   2.290       .  S
C1782      O1784   1.269       .  A
C1782      O1796   1.277       .  A
C1782      C1873   1.477       .  S
O1783      C1811   1.268       .  A
O1783     Mg1785   2.297       .  S
O1784     Mg1816   2.229       .  S
Mg1785     O1791   2.174       .  S
Mg1785     O1799   2.333       .  S
Mg1785     O1787   2.318       .  S
C1786      O1824   1.277       .  A
C1786      O1792   1.273       .  A
C1786      C1957   1.490       .  S
O1787      C1794   1.279       .  A
H1788      C1801   1.081       .  S
C1789      O1803   1.233       .  S
C1789      O1804   1.266       .  A
C1789      H1814   1.081       .  S
O1790      C1813   1.270       .  A
O1791     Mg1805   2.180       .  S
O1792     Mg1822   2.287       .  S
C1793      O1806   1.269       .  A
C1793      O1798   1.275       .  A
C1793      C1924   1.487       .  S
C1794      O1821   1.270       .  A
C1794      C1885   1.474       .  S
Mg1795     O1802   2.158       .  S
Mg1795     O1803   2.163       .  S
Mg1795     O1796   2.311       .  S
Mg1795     O1797   2.299       .  S
Mg1795     O1824   2.300       .  S
O1797      C1801   1.268       .  A
O1798     Mg1805   2.308       .  S
O1799      C1818   1.281       .  A
O1800      C1820   1.272       .  A
O1800     Mg1816   2.288       .  S
O1802      C1813   1.236       .  S
O1802     Mg1816   2.178       .  S
O1803     Mg1822   2.130       .  S
O1804     Mg1816   2.288       .  S
Mg1805     O1821   2.236       .  S
O1806     Mg1822   2.248       .  S
H1807      C1812   1.081       .  S
O1808      C1811   1.234       .  S
O1808     Mg1816   2.139       .  S
H1809      C1811   1.081       .  S
H1810      C1813   1.081       .  S
O1815     Mg1822   2.304       .  S
C1818      O1823   1.271       .  A
C1818      C1945   1.498       .  S
O1819      C1820   1.270       .  A
C1820      C1936   1.486       .  S
O1825      C1860   1.237       .  S
O1825     Mg2499   2.151       .  S
O1825     Mg1833   2.142       .  S
C1826      O1839   1.234       .  S
C1826      O1863   1.270       .  A
C1826      H1865   1.081       .  S
Mg1827     O2497   2.156   1_545  S
Mg1827     O1856   2.148       .  S
Mg1827     O1871   2.306       .  S
Mg1827     O1867   2.286       .  S
O1828      C1849   1.234       .  S
O1828     Mg1870   2.159       .  S
O1829      C1860   1.273       .  A
O1829     Mg1853   2.317       .  S
C1830      O1832   1.267       .  A
C1830      O1844   1.273       .  A
C1830      C1888   1.475       .  S
O1831      C1859   1.267       .  A
O1831     Mg2505   2.290   1_545  S
O1832     Mg1864   2.224       .  S
Mg1833     O1839   2.158       .  S
Mg1833     O2503   2.297       .  S
Mg1833     O1847   2.248       .  S
Mg1833     O1835   2.284       .  S
C1834      O2544   1.269       .  A
C1834      O1840   1.280       .  A
C1834      C1972   1.482       .  S
O1835      C1842   1.269       .  A
H1836      C1849   1.081       .  S
C1837      O1851   1.236       .  S
C1837      O1852   1.270       .  A
C1837      H1862   1.081       .  S
O1838      C1861   1.269       .  A
O1839     Mg1853   2.139       .  S
O1840     Mg1870   2.353       .  S
C1841      O1846   1.273       .  A
C1841      C1912   1.480       .  S
C1842      O1869   1.269       .  A
C1842      C1876   1.476       .  S
Mg1843     O1850   2.146       .  S
Mg1843     O1851   2.158       .  S
Mg1843     O1844   2.302       .  S
Mg1843     O2517   2.302   1_545  S
Mg1843     O1872   2.251       .  S
O1845      C1849   1.269       .  A
O1845     Mg2515   2.303       .  S
O1846     Mg1853   2.302       .  S
O1847      C2538   1.269       .  A
O1848      C1868   1.271       .  A
O1848     Mg1864   2.289       .  S
O1850      C1861   1.234       .  S
O1850     Mg1864   2.148       .  S
O1851     Mg2542   2.141   1_545  S
O1852     Mg1864   2.296       .  S
Mg1853     O1869   2.259       .  S
O1854     Mg1870   2.262       .  S
H1855      C1860   1.081       .  S
O1856      C1859   1.234       .  S
H1857      C1859   1.081       .  S
H1858      C1861   1.081       .  S
C1866      O2519   1.272   1_545  A
C1866      O1871   1.277       .  A
C1866      C1984   1.486       .  S
C1868      C1897   1.481       .  S
Mg1870     O2523   2.143       .  S
O1872      C2506   1.271   1_545  A
C1873      C1874   1.403       .  A
C1873      C1878   1.411       .  A
C1874      H1879   1.084       .  S
C1874      C1875   1.397       .  A
C1875      C1876   1.411       .  A
C1875      O1880   1.372       .  S
C1876      C1877   1.404       .  A
C1877      H1881   1.084       .  S
C1877      C1878   1.399       .  A
C1878      O1882   1.372       .  S
O1880      H1884   0.992       .  S
O1882      H1883   0.992       .  S
C1885      C1886   1.406       .  A
C1885      C1890   1.407       .  A
C1886      H1891   1.084       .  S
C1886      C1887   1.401       .  A
C1887      C1888   1.408       .  A
C1887      O1892   1.372       .  S
C1888      C1889   1.405       .  A
C1889      H1893   1.084       .  S
C1889      C1890   1.395       .  A
C1890      O1894   1.372       .  S
O1892      H1896   0.992       .  S
O1894      H1895   0.992       .  S
C1897      C1898   1.401   1_556  A
C1897      C1902   1.412       .  A
C1898      H1903   1.084       .  S
C1898      C1899   1.398       .  A
C1899      C1900   1.413   1_554  A
C1899      O1904   1.372       .  S
C1900      C1901   1.406       .  A
C1901      H1905   1.083       .  S
C1901      C1902   1.405       .  A
C1902      O1906   1.372       .  S
O1904      H1908   0.992       .  S
C1909      C1910   1.406       .  A
C1909      C1914   1.409       .  A
C1910      H1915   1.084       .  S
C1910      C1911   1.395       .  A
C1911      C1912   1.408       .  A
C1911      O1916   1.372       .  S
C1912      C1913   1.408       .  A
C1913      H1917   1.084       .  S
C1913      C1914   1.405       .  A
C1914      O1918   1.371       .  S
O1916      H1920   0.992       .  S
C1921      C1922   1.407       .  A
C1921      C1926   1.412       .  A
C1922      H1927   1.083       .  S
C1922      C1923   1.401       .  A
C1923      C1924   1.411       .  A
C1923      O1928   1.372       .  S
C1924      C1925   1.407       .  A
C1925      H1929   1.084       .  S
C1925      C1926   1.402       .  A
C1926      O1930   1.372       .  S
O1928      H1932   0.992       .  S
O1930      H1931   0.992       .  S
C1933      C1934   1.409       .  A
C1933      C1938   1.412       .  A
C1934      H1939   1.083       .  S
C1934      C1935   1.402       .  A
C1935      C1936   1.410       .  A
C1935      O1940   1.371       .  S
C1936      C1937   1.407       .  A
C1937      H1941   1.084       .  S
C1937      C1938   1.401       .  A
C1938      O1942   1.372       .  S
O1940      H1944   0.992       .  S
O1942      H1943   0.992       .  S
C1945      C1946   1.406       .  A
C1945      C1950   1.422       .  A
C1946      H1951   1.083       .  S
C1946      C1947   1.407       .  A
C1947      C1948   1.412       .  A
C1947      O1952   1.372       .  S
C1948      C1949   1.399       .  A
C1949      H1953   1.084       .  S
C1949      C1950   1.401       .  A
C1950      O1954   1.372       .  S
O1952      H1956   0.992       .  S
O1954      H1955   0.992       .  S
C1957      C1958   1.405       .  A
C1957      C1962   1.416       .  A
C1958      H1963   1.083       .  S
C1958      C1959   1.406       .  A
C1959      C1960   1.412       .  A
C1959      O1964   1.372       .  S
C1960      C1961   1.401       .  A
C1961      H1965   1.084       .  S
C1961      C1962   1.399       .  A
C1962      O1966   1.372       .  S
O1964      H1968   0.992       .  S
O1966      H1967   0.992       .  S
C1969      C1970   1.402       .  A
C1969      C2646   1.402   1_565  A
C1970      H1975   1.084       .  S
C1970      C1971   1.402       .  A
C1971      C2644   1.414       .  A
C1971      O1976   1.371       .  S
C1972      C2643   1.407       .  A
C1972      C1973   1.406       .  A
C1973      H1977   1.084       .  S
C1973      C1974   1.400       .  A
C1974      C2641   1.407       .  A
C1974      O1978   1.372       .  S
O1976      H1980   0.992       .  S
O1978      H1979   0.992       .  S
C1981      C2654   1.402       .  A
C1981      C1986   1.411       .  A
C1982      H1987   1.083       .  S
C1982      C2653   1.402       .  A
C1982      C1983   1.406       .  A
C1983      C1984   1.414       .  A
C1983      O1988   1.371       .  S
C1984      C2657   1.405       .  A
C1985      H1989   1.083       .  S
C1985      C2656   1.404       .  A
C1985      C1986   1.404       .  A
C1986      O1990   1.372       .  S
O1988      H1992   0.992       .  S
O1990      H1991   0.992       .  S
C1993      C1994   1.398       .  A
C1994      H1999   1.084       .  S
C1994      C1995   1.401       .  A
C1995      O2000   1.372       .  S
C1996      C1997   1.406       .  A
C1997      H2001   1.083       .  S
C1997      C1998   1.405       .  A
C1998      O2002   1.372       .  S
O2000      H2004   0.992       .  S
O2002      H2003   0.992       .  S
C2005      C2010   1.411       .  A
C2006      H2011   1.084       .  S
C2006      C2007   1.398       .  A
C2007      C2008   1.408   1_655  A
C2007      O2012   1.372       .  S
C2009      H2013   1.084       .  S
C2009      C2010   1.406       .  A
C2010      O2014   1.371       .  S
O2012      H2016   0.992       .  S
O2014      H2015   0.992       .  S
O2017      C2052   1.237       .  S
O2017     Mg2025   2.153       .  S
C2018      O2031   1.235       .  S
C2018      O2055   1.271       .  A
C2018      H2057   1.081       .  S
Mg2019     O2048   2.151       .  S
Mg2019     O2063   2.276   1_565  S
Mg2019     O2059   2.274       .  S
O2020      C2041   1.236       .  S
O2020     Mg2062   2.165       .  S
O2021      C2052   1.273   1_455  A
O2021     Mg2045   2.315   1_455  S
C2022      O2024   1.273       .  A
C2022      O2036   1.276       .  A
C2022      C2296   1.481       .  S
O2023      C2051   1.270       .  A
O2024     Mg2056   2.281       .  S
Mg2025     O2031   2.153       .  S
Mg2025     O2039   2.274       .  S
Mg2025     O2027   2.328       .  S
C2026      O2032   1.277       .  A
C2026      C2305   1.476       .  S
O2027      C2034   1.277       .  A
H2028      C2041   1.081       .  S
C2029      O2043   1.235       .  S
C2029      O2044   1.270       .  A
C2029      H2054   1.081       .  S
O2030      C2053   1.270       .  A
O2031     Mg2045   2.139       .  S
O2032     Mg2062   2.320       .  S
C2033      O2038   1.273   1_455  A
C2033      C2344   1.481       .  S
C2034      O2061   1.271       .  A
C2034      C2284   1.487       .  S
Mg2035     O2042   2.152       .  S
Mg2035     O2043   2.164       .  S
Mg2035     O2036   2.310       .  S
Mg2035     O2064   2.278       .  S
O2037      C2041   1.271       .  A
O2038     Mg2045   2.289       .  S
O2040      C2060   1.275       .  A
O2040     Mg2056   2.315       .  S
O2042      C2053   1.235       .  S
O2042     Mg2056   2.151       .  S
O2044     Mg2056   2.302       .  S
Mg2045     O2061   2.286       .  S
O2046     Mg2062   2.287       .  S
H2047      C2052   1.081       .  S
O2048      C2051   1.235       .  S
H2049      C2051   1.081       .  S
H2050      C2053   1.081       .  S
C2058      O2063   1.272       .  A
C2058      C2317   1.474       .  S
C2060      C2329   1.478       .  S
O2065      C2100   1.234       .  S
O2065     Mg2067   2.138       .  S
C2066      O2415   1.237       .  S
C2066      O2103   1.272       .  A
C2066      H2105   1.081       .  S
Mg2067     O2432   2.155   1_554  S
Mg2067     O2111   2.266       .  S
Mg2067     O2107   2.270       .  S
Mg2067     O2078   2.299       .  S
O2068     Mg2446   2.150   1_554  S
O2068     Mg2093   2.151       .  S
O2069     Mg2093   2.289       .  S
C2070      O2072   1.270       .  A
C2070      O2084   1.278       .  A
C2070      C2257   1.488       .  S
O2071      C2435   1.269   1_554  A
O2071     Mg2073   2.299       .  S
O2072     Mg2104   2.244       .  S
Mg2073     O2079   2.170       .  S
Mg2073     O2087   2.326       .  S
Mg2073     O2075   2.319       .  S
C2074      O2112   1.275       .  A
C2074      C2341   1.488       .  S
O2075      C2082   1.278       .  A
H2076      C2089   1.081       .  S
C2077      O2091   1.233       .  S
C2077      H2102   1.081       .  S
O2078      C2101   1.270       .  A
O2079      C2402   1.237   1_554  S
O2079     Mg2093   2.166       .  S
O2080     Mg2110   2.300       .  S
C2081      O2094   1.271       .  A
C2081      O2422   1.272       .  A
C2081      C2236   1.480       .  S
C2082      O2109   1.272       .  A
C2082      C2269   1.487       .  S
Mg2083     O2090   2.157       .  S
Mg2083     O2084   2.323       .  S
Mg2083     O2085   2.299       .  S
Mg2083     O2112   2.287       .  S
O2085      C2425   1.268       .  A
O2086      C2417   1.274   1_554  A
O2086     Mg2093   2.297       .  S
O2087      C2106   1.279       .  A
O2088      C2444   1.273       .  A
O2088     Mg2104   2.287       .  S
C2089      O2421   1.267   1_554  A
O2090      C2437   1.236       .  S
O2090     Mg2104   2.170       .  S
O2091     Mg2110   2.145       .  S
O2092     Mg2104   2.292       .  S
Mg2093     O2109   2.252       .  S
O2094     Mg2110   2.264       .  S
H2095      C2100   1.081       .  S
O2096     Mg2403   2.157       .  S
O2096     Mg2104   2.140       .  S
H2097      C2099   1.081       .  S
H2098      C2101   1.081       .  S
C2099      O2407   1.269       .  A
C2101      O2426   1.236   1_554  S
O2103     Mg2110   2.311       .  S
C2106      C2332   1.498       .  S
O2107      C2108   1.270       .  A
C2108      O2424   1.273   1_554  A
C2108      C2245   1.481       .  S
Mg2110     O2404   2.150       .  S
O2113      C2148   1.233       .  S
O2113     Mg2115   2.135       .  S
O2113     Mg2121   2.161       .  S
C2114      O2127   1.236       .  S
C2114      O2151   1.271       .  A
C2114      H2153   1.081       .  S
Mg2115     O2144   2.156       .  S
Mg2115     O2159   2.277       .  S
Mg2115     O2155   2.259       .  S
Mg2115     O2126   2.294       .  S
O2116      C2137   1.234       .  S
O2116     Mg2158   2.155       .  S
O2116     Mg2141   2.152       .  S
O2117      C2148   1.267       .  A
O2117     Mg2141   2.290       .  S
C2118      O2120   1.269       .  A
C2118      O2132   1.278       .  A
C2118      C2209   1.479       .  S
O2119      C2147   1.268       .  A
O2119     Mg2121   2.297       .  S
O2120     Mg2152   2.236       .  S
Mg2121     O2127   2.180       .  S
Mg2121     O2135   2.341       .  S
Mg2121     O2123   2.318       .  S
C2122      O2160   1.276       .  A
C2122      O2128   1.274       .  A
C2122      C2293   1.491       .  S
O2123      C2130   1.279       .  A
H2124      C2137   1.081       .  S
C2125      O2139   1.234       .  S
C2125      O2140   1.267       .  A
C2125      H2150   1.081       .  S
O2126      C2149   1.270       .  A
O2127     Mg2141   2.181       .  S
O2128     Mg2158   2.294       .  S
C2129      O2142   1.269       .  A
C2129      O2134   1.275       .  A
C2129      C2260   1.486       .  S
C2130      O2157   1.271       .  A
C2130      C2221   1.479       .  S
Mg2131     O2138   2.153       .  S
Mg2131     O2139   2.162       .  S
Mg2131     O2132   2.314       .  S
Mg2131     O2133   2.302       .  S
Mg2131     O2160   2.293       .  S
O2133      C2137   1.269       .  A
O2134     Mg2141   2.307       .  S
O2135      C2154   1.282       .  A
O2136      C2156   1.273       .  A
O2136     Mg2152   2.288       .  S
O2138      C2149   1.236       .  S
O2138     Mg2152   2.173       .  S
O2139     Mg2158   2.133       .  S
O2140     Mg2152   2.289       .  S
Mg2141     O2157   2.247       .  S
O2142     Mg2158   2.252       .  S
H2143      C2148   1.081       .  S
O2144      C2147   1.234       .  S
O2144     Mg2152   2.139       .  S
H2145      C2147   1.081       .  S
H2146      C2149   1.081       .  S
O2151     Mg2158   2.306       .  S
C2154      O2159   1.271       .  A
C2154      C2281   1.503       .  S
O2155      C2156   1.270       .  A
C2156      C2272   1.483       .  S
O2161      C2196   1.237       .  S
O2161     Mg2169   2.166       .  S
C2162      O2175   1.234       .  S
C2162      O2199   1.270       .  A
C2162      H2201   1.081       .  S
Mg2163     O2192   2.149       .  S
Mg2163     O2207   2.322       .  S
Mg2163     O2203   2.289       .  S
Mg2163     O2510   2.305   1_554  S
O2164      C2185   1.235       .  S
O2164     Mg2206   2.163       .  S
O2164     Mg2525   2.161       .  S
O2165      C2196   1.272       .  A
O2165     Mg2189   2.312       .  S
C2166      O2168   1.268       .  A
C2166      O2180   1.272       .  A
C2166      C2224   1.475       .  S
O2167      C2195   1.268       .  A
O2168     Mg2200   2.243       .  S
Mg2169     O2175   2.168       .  S
Mg2169     O2183   2.271       .  S
Mg2169     O2171   2.292       .  S
C2170      O2176   1.278       .  A
C2170      C2308   1.494       .  S
O2171      C2178   1.272       .  A
H2172      C2185   1.081       .  S
C2173      O2187   1.236       .  S
C2173      O2188   1.270       .  A
C2173      H2198   1.081       .  S
O2174      C2197   1.270       .  A
O2174     Mg2499   2.305       .  S
O2175     Mg2189   2.143       .  S
O2176     Mg2206   2.327       .  S
C2177      O2526   1.273   1_554  A
C2177      O2182   1.275       .  A
C2177      C2248   1.484       .  S
C2178      O2205   1.269       .  A
C2178      C2212   1.476       .  S
Mg2179     O2186   2.152       .  S
Mg2179     O2187   2.153       .  S
Mg2179     O2180   2.301       .  S
Mg2179     O2208   2.258       .  S
O2181      C2185   1.270       .  A
O2182     Mg2189   2.317       .  S
O2184      C2204   1.270       .  A
O2184     Mg2200   2.279       .  S
O2186      C2197   1.235       .  S
O2186     Mg2200   2.150       .  S
O2188     Mg2200   2.297       .  S
Mg2189     O2500   2.157   1_554  S
Mg2189     O2205   2.251       .  S
O2190      C2513   1.273       .  A
O2190     Mg2206   2.262       .  S
H2191      C2196   1.081       .  S
O2192      C2195   1.234       .  S
O2192     Mg2536   2.132   1_554  S
H2193      C2195   1.081       .  S
H2194      C2197   1.081       .  S
O2199     Mg2542   2.310   1_554  S
Mg2200     O2528   2.143       .  S
C2202      O2207   1.277       .  A
C2202      C2320   1.486       .  S
O2203      C2540   1.275   1_554  A
C2204      O2539   1.274       .  A
C2204      C2233   1.477       .  S
Mg2206     O2535   2.307       .  S
C2209      C2210   1.403       .  A
C2209      C2214   1.412       .  A
C2210      H2215   1.084       .  S
C2210      C2211   1.397       .  A
C2211      C2212   1.411       .  A
C2211      O2216   1.373       .  S
C2212      C2213   1.403       .  A
C2213      H2217   1.084       .  S
C2213      C2214   1.400       .  A
C2214      O2218   1.372       .  S
O2216      H2220   0.992       .  S
O2218      H2219   0.992       .  S
C2221      C2222   1.407       .  A
C2221      C2226   1.410       .  A
C2222      H2227   1.083       .  S
C2222      C2223   1.402       .  A
C2223      C2224   1.408       .  A
C2223      O2228   1.372       .  S
C2224      C2225   1.403       .  A
C2225      H2229   1.084       .  S
C2225      C2226   1.397       .  A
C2226      O2230   1.372       .  S
O2228      H2232   0.992       .  S
O2230      H2231   0.992       .  S
C2233      C2234   1.401       .  A
C2233      C2238   1.412       .  A
C2234      H2239   1.084       .  S
C2234      C2235   1.398       .  A
C2235      C2236   1.414       .  A
C2235      O2240   1.372       .  S
C2236      C2237   1.403       .  A
C2237      H2241   1.084       .  S
C2237      C2238   1.402       .  A
C2238      O2242   1.372       .  S
O2240      H2244   0.992       .  S
O2242      H2579   0.992       .  S
H2243      O2578   0.992       .  S
C2245      C2246   1.404   1_554  A
C2245      C2250   1.410       .  A
C2246      H2251   1.084       .  S
C2246      C2247   1.395       .  A
C2247      C2248   1.409   1_556  A
C2247      O2252   1.372       .  S
C2248      C2249   1.409       .  A
C2249      H2253   1.083       .  S
C2249      C2250   1.407       .  A
C2250      O2254   1.371       .  S
O2252      H2256   0.992       .  S
O2254      H2591   0.992       .  S
H2255      O2590   0.992       .  S
C2257      C2258   1.408       .  A
C2257      C2262   1.412       .  A
C2258      H2263   1.083       .  S
C2258      C2259   1.400       .  A
C2259      C2260   1.410       .  A
C2259      O2264   1.372       .  S
C2260      C2261   1.407       .  A
C2261      H2265   1.084       .  S
C2261      C2262   1.402       .  A
C2262      O2266   1.372       .  S
O2264      H2268   0.992       .  S
O2266      H2267   0.992       .  S
C2269      C2270   1.408       .  A
C2269      C2274   1.411       .  A
C2270      H2275   1.083       .  S
C2270      C2271   1.401       .  A
C2271      C2272   1.410       .  A
C2271      O2276   1.372       .  S
C2272      C2273   1.406       .  A
C2273      H2277   1.084       .  S
C2273      C2274   1.399       .  A
C2274      O2278   1.372       .  S
O2276      H2280   0.992       .  S
O2278      H2279   0.992       .  S
C2281      C2282   1.407       .  A
C2281      C2286   1.423       .  A
C2282      H2287   1.083       .  S
C2282      C2283   1.409       .  A
C2283      C2284   1.413       .  A
C2283      O2288   1.372       .  S
C2284      C2285   1.398       .  A
C2285      H2289   1.084       .  S
C2285      C2286   1.403       .  A
C2286      O2290   1.372       .  S
O2288      H2292   0.992       .  S
O2290      H2291   0.992       .  S
C2293      C2294   1.406       .  A
C2293      C2298   1.417       .  A
C2294      H2299   1.083       .  S
C2294      C2295   1.405       .  A
C2295      C2296   1.411       .  A
C2295      O2300   1.372       .  S
C2296      C2297   1.401       .  A
C2297      H2301   1.084       .  S
C2297      C2298   1.400       .  A
C2298      O2302   1.372       .  S
O2300      H2304   0.992       .  S
O2302      H2303   0.992       .  S
C2305      C2306   1.402       .  A
C2306      H2311   1.084       .  S
C2306      C2307   1.402       .  A
C2307      O2312   1.371       .  S
C2308      C2309   1.413       .  A
C2309      H2313   1.083   1_565  S
C2309      C2310   1.405       .  A
C2310      O2314   1.371   1_565  S
O2312      H2316   0.992       .  S
O2314      H2315   0.991       .  S
C2317      C2322   1.407       .  A
C2318      H2323   1.084       .  S
C2318      C2319   1.400       .  A
C2319      C2320   1.416       .  A
C2319      O2324   1.372       .  S
C2321      H2325   1.084       .  S
C2321      C2322   1.395       .  A
C2322      O2326   1.373       .  S
O2324      H2328   0.992       .  S
O2326      H2327   0.992       .  S
C2329      C2330   1.396       .  A
C2330      H2335   1.084       .  S
C2330      C2331   1.400       .  A
C2331      O2336   1.372       .  S
C2332      C2333   1.407       .  A
C2333      H2337   1.083       .  S
C2333      C2334   1.406       .  A
C2334      O2338   1.372       .  S
O2336      H2340   0.992       .  S
O2338      H2339   0.992       .  S
C2341      C2346   1.411       .  A
C2342      H2347   1.084       .  S
C2342      C2343   1.399       .  A
C2343      C2344   1.409   1_655  A
C2343      O2348   1.372       .  S
C2345      H2349   1.084       .  S
C2345      C2346   1.405       .  A
C2346      O2350   1.371       .  S
O2348      H2352   0.992       .  S
O2350      H2351   0.992       .  S
O2353      C2388   1.236       .  S
O2353     Mg2361   2.155       .  S
C2354      O2367   1.236       .  S
C2354      O2391   1.272       .  A
C2354      H2393   1.081       .  S
Mg2355     O2384   2.158       .  S
Mg2355     O2399   2.279       .  S
Mg2355     O2395   2.268       .  S
O2356      C2377   1.236       .  S
O2356     Mg2398   2.157       .  S
O2357      C2388   1.272       .  A
O2357     Mg2381   2.310       .  S
C2358      O2360   1.273       .  A
C2358      O2372   1.275       .  A
C2358      C2632   1.483       .  S
O2359      C2387   1.270       .  A
O2360     Mg2392   2.282       .  S
Mg2361     O2367   2.156       .  S
Mg2361     O2375   2.279       .  S
Mg2361     O2363   2.331       .  S
C2362      O2368   1.278       .  A
C2362      C2641   1.486       .  S
O2363      C2370   1.277       .  A
H2364      C2377   1.081       .  S
C2365      O2379   1.236       .  S
C2365      O2380   1.272       .  A
C2365      H2390   1.081       .  S
O2366      C2389   1.270       .  A
O2367     Mg2381   2.144       .  S
O2368     Mg2398   2.324       .  S
C2369      O2374   1.273   1_455  A
C2369      C2680   1.484       .  S
C2370      O2397   1.270       .  A
C2370      C2620   1.484       .  S
Mg2371     O2378   2.150       .  S
Mg2371     O2379   2.158       .  S
Mg2371     O2372   2.305       .  S
Mg2371     O2400   2.270       .  S
O2373      C2377   1.271       .  A
O2374     Mg2381   2.291       .  S
O2376      C2396   1.276       .  A
O2376     Mg2392   2.317       .  S
O2378      C2389   1.234       .  S
O2378     Mg2392   2.146       .  S
O2380     Mg2392   2.310       .  S
Mg2381     O2397   2.272       .  S
O2382     Mg2398   2.291       .  S
H2383      C2388   1.081       .  S
O2384      C2387   1.235       .  S
H2385      C2387   1.081       .  S
H2386      C2389   1.081       .  S
C2394      O2399   1.272   1_545  A
C2394      C2653   1.474       .  S
C2396      C2665   1.477       .  S
O2401      C2436   1.234       .  S
O2401     Mg2403   2.142       .  S
C2402      O2439   1.272       .  A
C2402      H2441   1.081       .  S
Mg2403     O2447   2.273       .  S
Mg2403     O2443   2.277       .  S
Mg2403     O2414   2.297       .  S
O2404     Mg2429   2.154       .  S
O2405     Mg2429   2.290       .  S
C2406      O2408   1.270       .  A
C2406      O2420   1.278       .  A
C2406      C2593   1.488       .  S
O2407     Mg2409   2.301       .  S
O2408     Mg2440   2.247       .  S
Mg2409     O2415   2.167       .  S
Mg2409     O2423   2.315       .  S
Mg2409     O2411   2.329       .  S
C2410      O2448   1.276       .  A
C2410      C2677   1.488       .  S
O2411      C2418   1.279       .  A
H2412      C2425   1.081       .  S
C2413      O2427   1.234       .  S
C2413      H2438   1.081       .  S
O2414      C2437   1.270       .  A
O2415     Mg2429   2.166       .  S
O2416     Mg2446   2.293       .  S
C2417      O2430   1.270       .  A
C2417      C2572   1.479       .  S
C2418      O2445   1.271       .  A
C2418      C2605   1.491       .  S
Mg2419     O2426   2.156       .  S
Mg2419     O2420   2.321       .  S
Mg2419     O2421   2.297       .  S
Mg2419     O2448   2.291       .  S
O2422     Mg2429   2.288       .  S
O2423      C2442   1.279       .  A
O2424     Mg2440   2.284       .  S
O2426     Mg2440   2.166       .  S
O2427     Mg2446   2.145       .  S
O2428     Mg2440   2.292       .  S
Mg2429     O2445   2.252       .  S
O2430     Mg2446   2.260       .  S
H2431      C2436   1.081       .  S
O2432     Mg2440   2.142       .  S
H2433      C2435   1.081       .  S
H2434      C2437   1.081       .  S
O2439     Mg2446   2.311       .  S
C2442      C2668   1.494       .  S
O2443      C2444   1.270       .  A
C2444      C2581   1.482       .  S
O2449      C2484   1.233       .  S
O2449     Mg2451   2.135       .  S
O2449     Mg2457   2.162       .  S
C2450      O2463   1.237       .  S
C2450      O2487   1.271       .  A
C2450      H2489   1.081       .  S
Mg2451     O2480   2.153       .  S
Mg2451     O2495   2.270       .  S
Mg2451     O2491   2.265       .  S
Mg2451     O2462   2.294       .  S
O2452      C2473   1.235       .  S
O2452     Mg2494   2.151       .  S
O2452     Mg2477   2.148       .  S
O2453      C2484   1.267       .  A
O2453     Mg2477   2.288       .  S
C2454      O2456   1.268       .  A
C2454      O2468   1.280       .  A
C2454      C2545   1.480       .  S
O2455      C2483   1.268       .  A
O2455     Mg2457   2.295       .  S
O2456     Mg2488   2.227       .  S
Mg2457     O2463   2.176       .  S
Mg2457     O2471   2.332       .  S
Mg2457     O2459   2.311       .  S
C2458      O2496   1.277       .  A
C2458      O2464   1.273       .  A
C2458      C2629   1.489       .  S
O2459      C2466   1.278       .  A
H2460      C2473   1.081       .  S
C2461      O2475   1.233       .  S
C2461      O2476   1.267       .  A
C2461      H2486   1.081       .  S
O2462      C2485   1.270       .  A
O2463     Mg2477   2.182       .  S
O2464     Mg2494   2.284       .  S
C2465      O2478   1.269       .  A
C2465      O2470   1.275       .  A
C2465      C2596   1.487       .  S
C2466      O2493   1.270       .  A
C2466      C2557   1.473       .  S
Mg2467     O2474   2.156       .  S
Mg2467     O2475   2.163       .  S
Mg2467     O2468   2.329       .  S
Mg2467     O2469   2.304       .  S
Mg2467     O2496   2.301       .  S
O2469      C2473   1.270       .  A
O2470     Mg2477   2.309       .  S
O2471      C2490   1.281       .  A
O2472      C2492   1.273       .  A
O2472     Mg2488   2.290       .  S
O2474      C2485   1.236       .  S
O2474     Mg2488   2.174       .  S
O2475     Mg2494   2.136       .  S
O2476     Mg2488   2.289       .  S
Mg2477     O2493   2.238       .  S
O2478     Mg2494   2.254       .  S
H2479      C2484   1.081       .  S
O2480      C2483   1.234       .  S
O2480     Mg2488   2.132       .  S
H2481      C2483   1.081       .  S
H2482      C2485   1.081       .  S
O2487     Mg2494   2.304       .  S
C2490      O2495   1.271       .  A
C2490      C2617   1.499       .  S
O2491      C2492   1.270       .  A
C2492      C2608   1.484       .  S
O2497      C2532   1.237       .  S
O2497     Mg2505   2.165       .  S
C2498      O2511   1.234       .  S
C2498      O2535   1.270       .  A
C2498      H2537   1.081       .  S
Mg2499     O2528   2.150       .  S
Mg2499     O2543   2.328       .  S
Mg2499     O2539   2.281       .  S
O2500      C2521   1.235       .  S
O2500     Mg2542   2.159       .  S
O2501      C2532   1.272       .  A
O2501     Mg2525   2.314       .  S
C2502      O2504   1.267       .  A
C2502      O2516   1.271       .  A
C2502      C2560   1.474       .  S
O2503      C2531   1.269       .  A
O2504     Mg2536   2.231       .  S
Mg2505     O2511   2.167       .  S
Mg2505     O2519   2.269       .  S
Mg2505     O2507   2.298       .  S
C2506      O2512   1.278       .  A
C2506      C2644   1.494       .  S
O2507      C2514   1.272       .  A
H2508      C2521   1.081       .  S
C2509      O2523   1.236       .  S
C2509      O2524   1.270       .  A
C2509      H2534   1.081       .  S
O2510      C2533   1.270       .  A
O2511     Mg2525   2.144       .  S
O2512     Mg2542   2.330       .  S
C2513      O2518   1.276       .  A
C2513      C2584   1.488       .  S
C2514      O2541   1.270       .  A
C2514      C2548   1.477       .  S
Mg2515     O2522   2.151       .  S
Mg2515     O2523   2.148       .  S
Mg2515     O2516   2.290       .  S
Mg2515     O2544   2.244       .  S
O2517      C2521   1.269       .  A
O2518     Mg2525   2.323       .  S
O2520      C2540   1.270       .  A
O2520     Mg2536   2.279       .  S
O2522      C2533   1.235       .  S
O2522     Mg2536   2.150       .  S
O2524     Mg2536   2.298       .  S
Mg2525     O2541   2.254       .  S
O2526     Mg2542   2.262       .  S
H2527      C2532   1.081       .  S
O2528      C2531   1.235       .  S
H2529      C2531   1.081       .  S
H2530      C2533   1.081       .  S
C2538      O2543   1.277       .  A
C2538      C2656   1.480       .  S
C2540      C2569   1.481       .  S
C2545      C2546   1.402       .  A
C2545      C2550   1.413       .  A
C2546      H2551   1.084       .  S
C2546      C2547   1.398       .  A
C2547      C2548   1.411       .  A
C2547      O2552   1.372       .  S
C2548      C2549   1.402       .  A
C2549      H2553   1.084       .  S
C2549      C2550   1.401       .  A
C2550      O2554   1.372       .  S
O2552      H2556   0.992       .  S
O2554      H2555   0.992       .  S
C2557      C2558   1.405       .  A
C2557      C2562   1.408       .  A
C2558      H2563   1.084       .  S
C2558      C2559   1.400       .  A
C2559      C2560   1.409       .  A
C2559      O2564   1.372       .  S
C2560      C2561   1.404       .  A
C2561      H2565   1.084       .  S
C2561      C2562   1.395       .  A
C2562      O2566   1.372       .  S
O2564      H2568   0.992       .  S
O2566      H2567   0.992       .  S
C2569      C2570   1.401   1_556  A
C2569      C2574   1.414       .  A
C2570      H2575   1.084       .  S
C2570      C2571   1.398       .  A
C2571      C2572   1.412   1_554  A
C2571      O2576   1.372       .  S
C2572      C2573   1.403       .  A
C2573      H2577   1.084       .  S
C2573      C2574   1.403       .  A
C2574      O2578   1.372       .  S
O2576      H2580   0.992       .  S
C2581      C2582   1.403       .  A
C2581      C2586   1.409       .  A
C2582      H2587   1.084       .  S
C2582      C2583   1.396       .  A
C2583      C2584   1.411       .  A
C2583      O2588   1.372       .  S
C2584      C2585   1.410       .  A
C2585      H2589   1.083       .  S
C2585      C2586   1.408       .  A
C2586      O2590   1.371       .  S
O2588      H2592   0.992       .  S
C2593      C2594   1.407       .  A
C2593      C2598   1.412       .  A
C2594      H2599   1.083       .  S
C2594      C2595   1.401       .  A
C2595      C2596   1.411       .  A
C2595      O2600   1.371       .  S
C2596      C2597   1.407       .  A
C2597      H2601   1.084       .  S
C2597      C2598   1.402       .  A
C2598      O2602   1.372       .  S
O2600      H2604   0.992       .  S
O2602      H2603   0.992       .  S
C2605      C2606   1.410       .  A
C2605      C2610   1.412       .  A
C2606      H2611   1.083       .  S
C2606      C2607   1.402       .  A
C2607      C2608   1.409       .  A
C2607      O2612   1.372       .  S
C2608      C2609   1.406       .  A
C2609      H2613   1.084       .  S
C2609      C2610   1.400       .  A
C2610      O2614   1.372       .  S
O2612      H2616   0.992       .  S
O2614      H2615   0.992       .  S
C2617      C2618   1.406       .  A
C2617      C2622   1.423       .  A
C2618      H2623   1.083       .  S
C2618      C2619   1.407       .  A
C2619      C2620   1.413       .  A
C2619      O2624   1.372       .  S
C2620      C2621   1.398       .  A
C2621      H2625   1.084       .  S
C2621      C2622   1.402       .  A
C2622      O2626   1.372       .  S
O2624      H2628   0.992       .  S
O2626      H2627   0.992       .  S
C2629      C2630   1.405       .  A
C2629      C2634   1.417       .  A
C2630      H2635   1.083       .  S
C2630      C2631   1.406       .  A
C2631      C2632   1.412       .  A
C2631      O2636   1.372       .  S
C2632      C2633   1.401       .  A
C2633      H2637   1.084       .  S
C2633      C2634   1.399       .  A
C2634      O2638   1.372       .  S
O2636      H2640   0.992       .  S
O2638      H2639   0.992       .  S
C2641      C2642   1.410       .  A
C2642      H2647   1.084       .  S
C2642      C2643   1.409       .  A
C2643      O2648   1.371       .  S
C2644      C2645   1.413       .  A
C2645      H2649   1.083   1_565  S
C2645      C2646   1.403   1_565  A
C2646      O2650   1.371       .  S
O2648      H2652   0.992       .  S
O2650      H2651   0.992       .  S
C2653      C2658   1.407       .  A
C2654      H2659   1.084       .  S
C2654      C2655   1.399       .  A
C2655      C2656   1.412       .  A
C2655      O2660   1.372       .  S
C2657      H2661   1.084       .  S
C2657      C2658   1.396       .  A
C2658      O2662   1.373       .  S
O2660      H2664   0.992       .  S
O2662      H2663   0.992       .  S
C2665      C2666   1.397       .  A
C2666      H2671   1.084       .  S
C2666      C2667   1.400       .  A
C2667      O2672   1.372       .  S
C2668      C2669   1.406       .  A
C2669      H2673   1.083       .  S
C2669      C2670   1.405       .  A
C2670      O2674   1.372       .  S
O2672      H2676   0.992       .  S
O2674      H2675   0.992       .  S
C2677      C2682   1.410       .  A
C2678      H2683   1.084       .  S
C2678      C2679   1.399       .  A
C2679      C2680   1.410   1_655  A
C2679      O2684   1.372       .  S
C2681      H2685   1.083       .  S
C2681      C2682   1.406       .  A
C2682      O2686   1.371       .  S
O2684      H2688   0.992       .  S
O2686      H2687   0.992       .  S
