geometry optimzed in LAMMPS
_audit_creation_date              2020-11-30 
_audit_creation_method            'lammps2cif' 
_symmetry_space_group_name_H-M    'P1' 
_symmetry_Int_Tables_number       1 
_symmetry_cell_setting            triclinic 
loop_ 
_symmetry_equiv_pos_as_xyz 
  x,y,z 
_cell_length_a                    30.73078398518195 
_cell_length_b                    30.73452072448591 
_cell_length_c                    32.43490104403934 
_cell_angle_alpha                 88.40184891439917 
_cell_angle_beta                  94.6857323799642 
_cell_angle_gamma                 119.58569794164522 
loop_ 
_atom_site_label 
_atom_site_type_symbol 
_atom_site_fract_x 
_atom_site_fract_y 
_atom_site_fract_z 
_atom_site_charge 
N1          N  0.89562563  0.97760246  0.94089829    -0.07010
N2          N  0.84662010  0.96095121  0.93714193    -0.59130
N3          N  0.00737818  0.03067966  0.90055075    -0.06690
N4          N  0.02400295  0.05010705  0.86448248    -0.61260
N5          N  0.98325238  0.98135242  0.89814768    -0.06290
N6          N  0.98317588  0.96677898  0.86017016    -0.59110
N7          N  0.92033601  0.02691788  0.94267733    -0.05970
N8          N  0.88890071  0.04452238  0.94023283    -0.61610
C9          C  0.84309434  0.00327647  0.93677290     0.95170
C10         C  0.00889499  0.00998012  0.83946427     0.94940
N11         N  0.10530700  0.11528487  0.00256167    -0.07200
N12         N  0.15277775  0.15099994  0.00650066    -0.59710
N13         N  0.99691592  0.11216271  0.00557213    -0.05320
N14         N  0.98508899  0.14809601  0.00329640    -0.60960
N15         N  0.01644611  0.11094390  0.04295508    -0.07230
N16         N  0.01788810  0.14607937  0.06681913    -0.59980
N17         N  0.08511235  0.11623541  0.96544144    -0.04960
N18         N  0.11858884  0.15305040  0.94368543    -0.61050
Mn19       Mn  0.00247037  0.07160619  0.95286165     1.18440
C20         C  0.16114815  0.17428287  0.96952566     0.97250
C21         C  0.99727922  0.16841458  0.04183151     0.97910
N22         N  0.97818877  0.89173003  0.95796794    -0.07250
N23         N  0.97745441  0.85647593  0.93457690    -0.63550
N24         N  0.91100094  0.88805558  0.03546252    -0.06050
N25         N  0.87732242  0.85234572  0.05792484    -0.64230
N26         N  0.89014136  0.88889319  0.99852777    -0.06750
N27         N  0.84223695  0.85395669  0.99538625    -0.63820
N28         N  0.99991425  0.89264465  0.99493805    -0.05650
N29         N  0.01460493  0.85883563  0.99708442    -0.64510
Mn30       Mn  0.93620994  0.93425352  0.94786600     1.10660
C31         C  0.00113151  0.83663274  0.95924818     0.98470
C32         C  0.83421869  0.83127825  0.03264730     0.98550
N33         N  0.01217049  0.02275734  0.10213011    -0.06760
N34         N  0.01230428  0.03826478  0.13968351    -0.62130
N35         N  0.07764050  0.97858774  0.05873002    -0.06080
N36         N  0.11147620  0.96365796  0.06334985    -0.58860
N37         N  0.10006232  0.02786186  0.05986137    -0.07390
N38         N  0.14920158  0.04723620  0.06482659    -0.61700
N39         N  0.98928036  0.97348002  0.10069955    -0.06380
N40         N  0.97362136  0.95496168  0.13728529    -0.58890
Mn41       Mn  0.05859583  0.06938974  0.05258925     1.20190
Mn42       Mn  0.99448311  0.93272793  0.04810488     1.10090
Cl43       Cl  0.99789702  0.00179127  0.00026638    -0.86860
C44         C  0.98798011  0.99577377  0.16142003     0.95480
C45         C  0.15592307  0.00698294  0.06749065     0.95270
N46         N  0.10645312  0.11531386  0.48275291    -0.07010
N47         N  0.15371113  0.14742909  0.47785342    -0.59130
N48         N  0.00000727  0.11094438  0.50253620    -0.06690
N49         N  0.98585952  0.14424018  0.49617112    -0.61260
N50         N  0.03377075  0.12362528  0.53413088    -0.06290
N51         N  0.04556537  0.16873847  0.54786617    -0.59110
N52         N  0.07772519  0.11122468  0.44904697    -0.05970
N53         N  0.10555436  0.14233087  0.42064083    -0.61610
C54         C  0.15309746  0.16378505  0.43907869     0.95170
C55         C  0.01424673  0.18036487  0.52397831     0.94940
N56         N  0.88907508  0.97488664  0.46234568    -0.07200
N57         N  0.84535512  0.96040553  0.47780602    -0.59710
N58         N  0.98641357  0.01758241  0.40021139    -0.05320
N59         N  0.99823083  0.03167346  0.36220786    -0.60960
N60         N  0.96237391  0.96856102  0.40270865    -0.07230
N61         N  0.95724389  0.94831577  0.36575413    -0.59980
N62         N  0.91271134  0.02358082  0.45738142    -0.04960
N63         N  0.88538310  0.04280909  0.46892355    -0.61050
Mn64       Mn  0.99419010  0.06598950  0.45113898     1.18440
C65         C  0.84312801  0.00318111  0.48132740     0.97250
C66         C  0.98019884  0.98842700  0.34075056     0.97910
N67         N  0.04466825  0.04688350  0.60030098    -0.07250
N68         N  0.04804348  0.06628162  0.63727305    -0.63550
N69         N  0.09585730  0.99357612  0.54492258    -0.06050
N70         N  0.12350952  0.97539834  0.53203486    -0.64230
N71         N  0.11921938  0.04246394  0.54149895    -0.06750
N72         N  0.16308108  0.05816898  0.52603493    -0.63820
N73         N  0.02108232  0.99778723  0.60216405    -0.05650
N74         N  0.00768908  0.98277163  0.63965907    -0.64510
Mn75       Mn  0.07700469  0.08323304  0.54132918     1.10660
C76         C  0.02438957  0.02548758  0.66147600     0.98470
C77         C  0.16556805  0.01592667  0.52039293     0.98550
N78         N  0.97405649  0.89224180  0.46905975    -0.06760
N79         N  0.95865317  0.84526612  0.45813958    -0.62130
N80         N  0.93074125  0.90315011  0.55362219    -0.06080
N81         N  0.90422407  0.86728079  0.57973658    -0.58860
N82         N  0.90146675  0.90038121  0.52067643    -0.07390
N83         N  0.85520232  0.86432130  0.52407075    -0.61700
N84         N  0.00924276  0.90545323  0.49965243    -0.06380
N85         N  0.02050814  0.87022715  0.50778833    -0.58890
Mn86       Mn  0.93084688  0.93317361  0.46222775     1.20190
Mn87       Mn  0.01441708  0.95005643  0.55114336     1.10090
Cl88       Cl  0.00406842  0.00809822  0.50146011    -0.86860
C89         C  0.98837821  0.83229815  0.48281520     0.95480
C90         C  0.85673882  0.84410776  0.56108713     0.95270
N91         N  0.89103766  0.41027677  0.97114466    -0.07010
N92         N  0.84976547  0.37162019  0.95354246    -0.59130
N93         N  0.90242800  0.49293252  0.03773749    -0.06690
N94         N  0.86181413  0.48864211  0.05277674    -0.61260
N95         N  0.90630443  0.51134952  0.00032016    -0.06290
N96         N  0.87170315  0.52316333  0.99049261    -0.59110
N97         N  0.89858143  0.39891357  0.00953664    -0.05970
N98         N  0.86459738  0.35319154  0.01823064    -0.61610
C99         C  0.83465333  0.33580299  0.98327333     0.95170
C100        C  0.84342626  0.50791772  0.02251532     0.94940
N101        N  0.04025129  0.53451309  0.10520193    -0.07200
N102        N  0.06128784  0.55220408  0.14249925    -0.59710
N103        N  0.98603237  0.41426402  0.07204553    -0.05320
N104        N  0.96830348  0.36529326  0.07288977    -0.60960
N105        N  0.03508302  0.43821372  0.07132694    -0.07230
N106        N  0.05158242  0.40570026  0.07114594    -0.59980
N107        N  0.99105012  0.50988363  0.10560510    -0.04960
N108        N  0.97790518  0.51087797  0.14316272    -0.61050
Mn109      Mn  0.94407354  0.45399780  0.05708952     1.18440
C110        C  0.02203172  0.53778597  0.16576298     0.97250
C111        C  0.00964825  0.36032552  0.07281431     0.97910
N112        N  0.97656686  0.57200458  0.93518115    -0.07250
N113        N  0.96003106  0.60459584  0.93245689    -0.63550
N114        N  0.01845505  0.49851618  0.90135048    -0.06050
N115        N  0.03059507  0.49606157  0.86366991    -0.64230
N116        N  0.96934755  0.47485880  0.90235358    -0.06750
N117        N  0.94734855  0.45651221  0.86544179    -0.63820
N118        N  0.02567957  0.59553204  0.93526196    -0.05650
N119        N  0.04359755  0.64447946  0.93319499    -0.64510
Mn120      Mn  0.93506465  0.49128217  0.95145952     1.10660
C121        C  0.00221406  0.64978151  0.93065247     0.98470
C122        C  0.98587029  0.46897712  0.84179855     0.98550
N123        N  0.10655531  0.50043742  0.00827426    -0.06760
N124        N  0.13231557  0.47754438  0.01556561    -0.62130
N125        N  0.11285999  0.61008450  0.99748213    -0.06080
N126        N  0.14524610  0.65668158  0.98939983    -0.58860
N127        N  0.11870515  0.59974644  0.03655098    -0.07390
N128        N  0.15716280  0.63978595  0.05536743    -0.61700
N129        N  0.10590647  0.51270891  0.96925529    -0.06380
N130        N  0.13381939  0.49979730  0.94933917    -0.58890
Mn131      Mn  0.07630803  0.51947217  0.05646301     1.20190
Mn132      Mn  0.06673395  0.55443038  0.94980157     1.10090
Cl133      Cl  0.00562098  0.50485007  0.00369860    -0.86860
C134        C  0.14905913  0.47694267  0.97902056     0.95480
C135        C  0.17225053  0.67535167  0.02552125     0.95270
N136        N  0.99548812  0.40461997  0.46285579    -0.07010
N137        N  0.00688982  0.37603670  0.44148490    -0.59130
N138        N  0.91233281  0.39078470  0.52924700    -0.06690
N139        N  0.87340502  0.35575662  0.54751916    -0.61260
N140        N  0.89876748  0.39488062  0.49049050    -0.06290
N141        N  0.85094401  0.36472147  0.48177553    -0.59110
N142        N  0.01188766  0.40646981  0.50180433    -0.05970
N143        N  0.03626415  0.38174964  0.50740228    -0.61610
C144        C  0.03314902  0.36273975  0.46996417     0.95170
C145        C  0.83548374  0.34114228  0.51734185     0.94940
N146        N  0.99462228  0.51626781  0.60712643    -0.07200
N147        N  0.99233953  0.52820851  0.64542945    -0.59710
N148        N  0.07196890  0.47972199  0.57164450    -0.05320
N149        N  0.10570353  0.46491904  0.57188609    -0.60960
N150        N  0.09382869  0.52863826  0.57529677    -0.07230
N151        N  0.14348630  0.54797372  0.57809444    -0.59980
N152        N  0.97466649  0.46748865  0.60320329    -0.04960
N153        N  0.95879436  0.44550506  0.63862057    -0.61050
Mn154      Mn  0.99175531  0.43479801  0.55223237     1.18440
C155        C  0.96902786  0.48356522  0.66448152     0.97250
C156        C  0.15036623  0.50747931  0.57671957     0.97910
N157        N  0.90151169  0.47571621  0.43192549    -0.07250
N158        N  0.85198905  0.45682205  0.43049151    -0.63550
N159        N  0.02205851  0.53605794  0.40377640    -0.06050
N160        N  0.03964612  0.55807862  0.36878376    -0.64230
N161        N  0.00001369  0.48722856  0.39946765    -0.06750
N162        N  0.00250341  0.47504954  0.36133362    -0.63820
N163        N  0.92410517  0.52468429  0.43446938    -0.05650
N164        N  0.89081642  0.54001389  0.43477503    -0.64510
Mn165      Mn  0.94837435  0.43909357  0.44503334     1.10660
C166        C  0.84572379  0.49766364  0.43178348     0.98470
C167        C  0.02820784  0.51973421  0.34284811     0.98550
N168        N  0.09666361  0.60988266  0.51702182    -0.06760
N169        N  0.14376328  0.64175841  0.52687510    -0.62130
N170        N  0.98416703  0.59723234  0.50284837    -0.06080
N171        N  0.95942222  0.62081946  0.49408161    -0.58860
N172        N  0.99943644  0.60130968  0.54225329    -0.07390
N173        N  0.98705721  0.63155752  0.56055004    -0.61700
N174        N  0.08401818  0.61331479  0.47785400    -0.06380
N175        N  0.12287632  0.64965805  0.46041561    -0.58890
Mn176      Mn  0.04644360  0.56551894  0.56186070     1.20190
Mn177      Mn  0.00480460  0.56887073  0.45405141     1.10090
Cl178      Cl  0.99784607  0.50207845  0.50338328    -0.86860
C179        C  0.15974766  0.66576329  0.49160511     0.95480
C180        C  0.96098686  0.64248352  0.52950663     0.95270
N181        N  0.41504907  0.90606268  0.95826716    -0.07010
N182        N  0.38619611  0.85953129  0.96978059    -0.59130
N183        N  0.47221362  0.01242690  0.90358475    -0.06690
N184        N  0.47079495  0.02785161  0.86508458    -0.61260
N185        N  0.49605019  0.98674422  0.90577562    -0.06290
N186        N  0.51172625  0.98462302  0.86991033    -0.59110
N187        N  0.39110308  0.93154790  0.95894576    -0.05970
N188        N  0.34556239  0.90252261  0.97154564    -0.61610
C189        C  0.34279646  0.85740475  0.97796651     0.95170
C190        C  0.49624680  0.01042805  0.84454542     0.94940
N191        N  0.50785724  0.11518236  0.00106218    -0.07200
N192        N  0.52713699  0.16347615  0.00470285    -0.59710
N193        N  0.39732992  0.01479235  0.01326237    -0.05320
N194        N  0.34986978  0.00255143  0.01337945    -0.60960
N195        N  0.42204151  0.03509912  0.04889271    -0.07230
N196        N  0.39115206  0.03763269  0.07391195    -0.59980
N197        N  0.47905859  0.09771752  0.96656705    -0.04960
N198        N  0.47564150  0.13485293  0.94749203    -0.61050
Mn199      Mn  0.43392140  0.01453820  0.95875521     1.18440
C200        C  0.50739602  0.17597061  0.97148482     0.97250
C201        C  0.34598442  0.01620522  0.05133947     0.97910
N202        N  0.58064767  0.97957842  0.96159025    -0.07250
N203        N  0.61068503  0.97733480  0.93556213    -0.63550
N204        N  0.52842191  0.91967028  0.04451125    -0.06050
N205        N  0.53768633  0.88519376  0.06186634    -0.64230
N206        N  0.49751148  0.90048112  0.01127914    -0.06750
N207        N  0.48280800  0.85309042  0.00679569    -0.63820
N208        N  0.60664127  0.00210138  0.99618199    -0.05650
N209        N  0.65431746  0.01621301  0.99437131    -0.64510
Mn210      Mn  0.49718820  0.94302445  0.95826041     1.10660
C211        C  0.65680018  0.00103191  0.95647682     0.98470
C212        C  0.50751140  0.84359983  0.03823070     0.98550
N213        N  0.50739304  0.02652247  0.10598427    -0.06760
N214        N  0.49195477  0.02669536  0.14256539    -0.62130
N215        N  0.61292080  0.08481123  0.05240593    -0.06080
N216        N  0.65864445  0.11490416  0.04063198    -0.58860
N217        N  0.58862850  0.10970339  0.05482549    -0.07390
N218        N  0.61750236  0.15704750  0.04531171    -0.61700
N219        N  0.53277292  0.00233019  0.10671185    -0.06380
N220        N  0.53531152  0.98568311  0.14442994    -0.58890
Mn221      Mn  0.50613003  0.07162905  0.05392526     1.20190
Mn222      Mn  0.57124884  0.00219382  0.05147644     1.10090
Cl223      Cl  0.50209036  0.00785326  0.00561932    -0.86860
C224        C  0.50873595  0.00045328  0.16603109     0.95480
C225        C  0.66128395  0.16020954  0.03685911     0.95270
N226        N  0.52657983  0.09953288  0.56710726    -0.07010
N227        N  0.54325953  0.14836802  0.56904843    -0.59130
N228        N  0.47826142  0.98506529  0.60599026    -0.06690
N229        N  0.46112803  0.97324911  0.64295865    -0.61260
N230        N  0.52775503  0.00837617  0.60897328    -0.06290
N231        N  0.54478387  0.01244614  0.64825448    -0.59110
N232        N  0.47732897  0.07510043  0.56458041    -0.05970
N233        N  0.45959996  0.10646348  0.56487767    -0.61610
C234        C  0.50098336  0.15232515  0.56795406     0.95170
C235        C  0.50276492  0.98966931  0.66893720     0.94940
N236        N  0.39627116  0.89927016  0.49973759    -0.07200
N237        N  0.36641794  0.85138125  0.49399678    -0.59710
N238        N  0.39448833  0.00600716  0.50025806    -0.05320
N239        N  0.36276844  0.02212758  0.50455105    -0.60960
N240        N  0.38927310  0.98793105  0.46274019    -0.07230
N241        N  0.35135043  0.98974265  0.44127407    -0.59980
N242        N  0.39426303  0.91363301  0.53694101    -0.04960
N243        N  0.36056120  0.87503171  0.55688294    -0.61050
Mn244      Mn  0.43541616  0.99423835  0.55255637     1.18440
C245        C  0.34450369  0.83639951  0.52954168     0.97250
C246        C  0.33639916  0.01268160  0.46779123     0.97910
N247        N  0.61358279  0.02039990  0.54664420    -0.07250
N248        N  0.65518219  0.02404828  0.56626364    -0.63550
N249        N  0.60587599  0.09234139  0.47249148    -0.06050
N250        N  0.63847928  0.13082311  0.45180990    -0.64230
N251        N  0.60363003  0.10729916  0.50939147    -0.06750
N252        N  0.63209626  0.15557808  0.51410361    -0.63820
N253        N  0.60754036  0.00107837  0.50945971    -0.05650
N254        N  0.64249263  0.98955908  0.50390090    -0.64510
Mn255      Mn  0.56891381  0.05882431  0.55916314     1.10660
C256        C  0.67177630  0.00299463  0.53936071     0.98470
C257        C  0.65318499  0.17002804  0.47815812     0.98550
N258        N  0.47296985  0.99752094  0.40080117    -0.06760
N259        N  0.45589748  0.99299089  0.36154055    -0.62130
N260        N  0.52268320  0.93054028  0.44590694    -0.06080
N261        N  0.53983377  0.89865368  0.44676097    -0.58860
N262        N  0.47338579  0.90655420  0.44272556    -0.07390
N263        N  0.45601153  0.85758980  0.44123786    -0.61700
N264        N  0.52238466  0.02125235  0.40387186    -0.06380
N265        N  0.53948228  0.03370226  0.36692142    -0.58890
Mn266      Mn  0.43194458  0.94786138  0.45045000     1.20190
Mn267      Mn  0.56519562  0.01176242  0.45738588     1.10090
Cl268      Cl  0.50042216  0.00308308  0.50496899    -0.86860
C269        C  0.49778806  0.01610115  0.34073809     0.95480
C270        C  0.49795772  0.85312374  0.44372833     0.95270
N271        N  0.51232452  0.41050802  0.04165969    -0.07010
N272        N  0.51306145  0.37137258  0.05937725    -0.59130
N273        N  0.58446416  0.48492972  0.97419104    -0.06690
N274        N  0.61952702  0.47855847  0.95883279    -0.61260
N275        N  0.60014056  0.50450355  0.01163732    -0.06290
N276        N  0.64590595  0.51445135  0.02150699    -0.59110
N277        N  0.49104364  0.39785302  0.00380665    -0.05970
N278        N  0.47445930  0.35062670  0.99600169    -0.61610
C279        C  0.48775914  0.33404977  0.03050300     0.95170
C280        C  0.65742417  0.49750503  0.98916737     0.94940
N281        N  0.49228898  0.52840581  0.90260042    -0.07200
N282        N  0.49233137  0.54644140  0.86512576    -0.59710
N283        N  0.42299764  0.41116976  0.93852778    -0.05320
N284        N  0.39096579  0.36258582  0.93916902    -0.60960
N285        N  0.39914372  0.43671663  0.93650295    -0.07230
N286        N  0.34996845  0.40571389  0.93535609    -0.59980
N287        N  0.51570704  0.50231581  0.90417948    -0.04960
N288        N  0.53262111  0.50256654  0.86803378    -0.61050
Mn289      Mn  0.50417823  0.44901524  0.95432760     1.18440
C290        C  0.51854610  0.53086866  0.84402047     0.97250
C291        C  0.34532176  0.35938184  0.93637943     0.97910
N292        N  0.59622147  0.57304733  0.07426032    -0.07250
N293        N  0.64517091  0.60417611  0.07369903    -0.63550
N294        N  0.47970461  0.50562780  0.10851649    -0.06050
N295        N  0.46304071  0.50440674  0.14503195    -0.64230
N296        N  0.50444630  0.48088333  0.10938859    -0.06750
N297        N  0.50559305  0.46276337  0.14659502    -0.63820
N298        N  0.57208312  0.59826797  0.07396526    -0.05650
N299        N  0.60402190  0.64698911  0.07298017    -0.64510
Mn300      Mn  0.55347555  0.49150185  0.06020067     1.10660
C301        C  0.64976310  0.65040747  0.07384639     0.98470
C302        C  0.47867950  0.47676416  0.16832132     0.98550
N303        N  0.39531031  0.50419713  0.99956686    -0.06760
N304        N  0.34706180  0.48339554  0.99169908    -0.62130
N305        N  0.50364052  0.61033330  0.00941642    -0.06080
N306        N  0.52317411  0.65795795  0.01734208    -0.58860
N307        N  0.48439965  0.59906838  0.97093441    -0.07390
N308        N  0.48774900  0.63982286  0.95287212    -0.61700
N309        N  0.40900743  0.52047520  0.03804244    -0.06380
N310        N  0.36917547  0.51368086  0.05645169    -0.58890
Mn311      Mn  0.44252541  0.51841698  0.95116710     1.20190
Mn312      Mn  0.49004561  0.55891475  0.05859842     1.10090
Cl313      Cl  0.49750849  0.50450753  0.00606008    -0.86860
C314        C  0.33092404  0.48943399  0.02680271     0.95480
C315        C  0.51343560  0.67641184  0.98235931     0.95270
N316        N  0.38721189  0.42118585  0.45934185    -0.07010
N317        N  0.35322069  0.38974709  0.43128044    -0.59130
N318        N  0.38915909  0.48029841  0.54504963    -0.06050
N319        N  0.35432967  0.47803248  0.56829491    -0.61260
N320        N  0.38930971  0.50419308  0.51062197    -0.06290
N321        N  0.35496236  0.51826226  0.50983608    -0.59110
N322        N  0.38888971  0.39722976  0.49319026    -0.05970
N323        N  0.35671655  0.34894782  0.48854456    -0.61610
C324        C  0.33518238  0.34468772  0.44966655     0.95170
C325        C  0.33357558  0.50247396  0.54608224     0.94940
N326        N  0.52841593  0.50520475  0.60724128    -0.07200
N327        N  0.54811657  0.52472501  0.64436663    -0.59710
N328        N  0.47565964  0.39682208  0.55384977    -0.05320
N329        N  0.45885848  0.34791215  0.55504553    -0.60960
N330        N  0.52504789  0.42112537  0.55526530    -0.07230
N331        N  0.54247402  0.38944242  0.55745590    -0.59980
N332        N  0.47901599  0.48200316  0.60596839    -0.04960
N333        N  0.46435506  0.48560834  0.64233062    -0.61050
Mn334      Mn  0.43239969  0.43821606  0.55051193     1.18440
C335        C  0.50791882  0.51274737  0.66589554     0.97250
C336        C  0.50103635  0.34367732  0.55723726     0.97910
N337        N  0.47396361  0.58591027  0.45726312    -0.07250
N338        N  0.45660986  0.61762997  0.45372934    -0.63550
N339        N  0.52005318  0.52554391  0.40682695    -0.06050
N340        N  0.53506097  0.52289776  0.37041894    -0.64230
N341        N  0.47070604  0.50219149  0.40531918    -0.06750
N342        N  0.45135509  0.48328424  0.36794861    -0.63820
N343        N  0.52339622  0.61005779  0.45922901    -0.05650
N344        N  0.54045602  0.65893590  0.45741528    -0.64510
Mn345      Mn  0.42993670  0.50359012  0.45757918     1.10660
C346        C  0.49831972  0.66313668  0.45376082     0.98470
C347        C  0.49181339  0.49607895  0.34644326     0.98550
N348        N  0.60933992  0.50228958  0.50165558    -0.06760
N349        N  0.64272562  0.48697610  0.50136121    -0.62130
N350        N  0.61083801  0.60974028  0.51891712    -0.06080
N351        N  0.64667186  0.65690468  0.52104252    -0.58860
N352        N  0.61293554  0.58650325  0.55309966    -0.07390
N353        N  0.65075383  0.61776588  0.57893600    -0.61700
N354        N  0.60901199  0.52618804  0.46735891    -0.06380
N355        N  0.64258150  0.52750263  0.44322704    -0.58890
Mn356      Mn  0.56927008  0.50356790  0.55504579     1.20190
Mn357      Mn  0.56638055  0.56858769  0.46231361     1.10090
Cl358      Cl  0.49949520  0.50353365  0.50642371    -0.86860
C359        C  0.66265295  0.50190141  0.46443784     0.95480
C360        C  0.67077754  0.66198329  0.55887083     0.95270
C361        C  0.51176898  0.52191121  0.71107186    -0.01050
C362        C  0.55282097  0.52394919  0.73525585    -0.12920
C363        C  0.55670012  0.52850242  0.77839855     0.01190
C364        C  0.51956666  0.53243118  0.79830876    -0.01130
C365        C  0.47973317  0.53285063  0.77397684    -0.12860
C366        C  0.47522448  0.52705654  0.73080244     0.01070
H367        H  0.58129803  0.52022367  0.72053694     0.14050
H368        H  0.45081868  0.53567558  0.78880223     0.14060
C369        C  0.43291793  0.52678135  0.70763900     0.35710
C370        C  0.59907122  0.52865099  0.80135309     0.35610
N371        N  0.39894100  0.52656068  0.68918609    -0.44640
N372        N  0.63300108  0.52856887  0.81960291    -0.44630
C373        C  0.48849218  0.48700886  0.30115269    -0.01050
C374        C  0.44237891  0.47222240  0.27810201    -0.12920
C375        C  0.43788766  0.46717470  0.23493710     0.01190
C376        C  0.47968561  0.47570725  0.21397319    -0.01130
C377        C  0.52516986  0.48826973  0.23692576    -0.12860
C378        C  0.53016881  0.49458601  0.28000638     0.01070
H379        H  0.40986548  0.46594868  0.29363664     0.14050
H380        H  0.55768027  0.49535717  0.22094204     0.14060
C381        C  0.57878412  0.50969093  0.30121475     0.35710
C382        C  0.38993055  0.45293274  0.21285708     0.35610
N383        N  0.61793199  0.52206673  0.31795871    -0.44640
N384        N  0.35145834  0.44142904  0.19518296    -0.44630
C385        C  0.49771422  0.71144533  0.45032271    -0.01050
C386        C  0.53677841  0.75417228  0.47078486    -0.12920
C387        C  0.53703641  0.80003928  0.46955437     0.01190
C388        C  0.49822516  0.80455074  0.44664431    -0.01130
C389        C  0.45895652  0.76172872  0.42632401    -0.12860
C390        C  0.45843333  0.71563856  0.42784656     0.01070
H391        H  0.56663659  0.75144575  0.48879646     0.14050
H392        H  0.42893115  0.76442210  0.40859171     0.14060
C393        C  0.41814400  0.67386827  0.40454789     0.35710
C394        C  0.57608562  0.84104326  0.49423556     0.35610
N395        N  0.38595436  0.64047020  0.38570038    -0.44640
N396        N  0.60699629  0.87395367  0.51429552    -0.44630
C397        C  0.50187480  0.29507652  0.55996107    -0.01050
C398        C  0.45658322  0.24999616  0.56308296    -0.12920
C399        C  0.45521158  0.20353130  0.56622471     0.01190
C400        C  0.50008252  0.20089147  0.56612724    -0.01130
C401        C  0.54535430  0.24595991  0.56304224    -0.12860
C402        C  0.54674478  0.29240077  0.55991071     0.01070
H403        H  0.42176883  0.25090154  0.56327391     0.14050
H404        H  0.58015036  0.24505004  0.56265337     0.14060
C405        C  0.59511095  0.33632623  0.55618104     0.35710
C406        C  0.40691363  0.15950966  0.56991684     0.35610
N407        N  0.63405573  0.37128419  0.55315676    -0.44640
N408        N  0.36803882  0.12443728  0.57289209    -0.44630
C409        C  0.50049107  0.01047539  0.79915036    -0.01050
C410        C  0.52744021  0.98837751  0.78485249    -0.12920
C411        C  0.52856671  0.98127120  0.74270239     0.01190
C412        C  0.50257969  0.99643554  0.71367205    -0.01130
C413        C  0.47670493  0.01972336  0.72739197    -0.12860
C414        C  0.47582703  0.02730204  0.76974590     0.01070
H415        H  0.54694598  0.97529249  0.80665516     0.14050
H416        H  0.45742598  0.03237399  0.70489079     0.14060
C417        C  0.44933799  0.05214865  0.78183830     0.35710
C418        C  0.55428147  0.95582569  0.73001566     0.35610
N419        N  0.42830993  0.07235090  0.79142673    -0.44640
N420        N  0.57450278  0.93510922  0.71973072    -0.44630
C421        C  0.49913938  0.01079487  0.29566165    -0.01050
C422        C  0.54230691  0.04559424  0.27678734    -0.12920
C423        C  0.54727004  0.04094399  0.23491473     0.01190
C424        C  0.50879639  0.00065244  0.21120968    -0.01130
C425        C  0.46597185  0.96539817  0.22982310    -0.12860
C426        C  0.46098266  0.96971536  0.27184738     0.01070
H427        H  0.57213386  0.07686357  0.29471893     0.14050
H428        H  0.43605016  0.93484005  0.21130957     0.14060
C429        C  0.41722878  0.93044773  0.28967422     0.35710
C430        C  0.59137288  0.07890621  0.21648010     0.35610
N431        N  0.38225460  0.89869080  0.30386704    -0.44640
N432        N  0.62658415  0.10930403  0.20157847    -0.44630
C433        C  0.50824652  0.72041204  0.98780603    -0.01050
C434        C  0.55199435  0.76714293  0.98835457    -0.12920
C435        C  0.55559189  0.80771953  0.01001679     0.01190
C436        C  0.51524134  0.80132952  0.03232390    -0.01130
C437        C  0.47194270  0.75458628  0.03208583    -0.12860
C438        C  0.46806569  0.71441754  0.01018760     0.01070
H439        H  0.58412648  0.77135128  0.97334178     0.14050
H440        H  0.44000605  0.75004480  0.04767043     0.14060
C441        C  0.42437279  0.66615195  0.01489774     0.35710
C442        C  0.59997303  0.85603321  0.00727060     0.35610
N443        N  0.38969515  0.62767282  0.01999325    -0.44640
N444        N  0.63558208  0.89467404  0.00493947    -0.44630
C445        C  0.50205228  0.22001259  0.97723971    -0.01050
C446        C  0.45522866  0.21069109  0.98840935    -0.12920
C447        C  0.45098086  0.24508091  0.01258578     0.01190
C448        C  0.49385967  0.29048652  0.02528530    -0.01130
C449        C  0.54087514  0.30013415  0.01400874    -0.12860
C450        C  0.54519640  0.26544397  0.99011438     0.01070
H451        H  0.42251723  0.17493855  0.98085488     0.14050
H452        H  0.57375926  0.33619469  0.02148076     0.14060
C453        C  0.59444195  0.27661060  0.97968629     0.35710
C454        C  0.40201814  0.23341571  0.02384428     0.35610
N455        N  0.63383617  0.28557843  0.97116324    -0.44640
N456        N  0.36287272  0.22396668  0.03326130    -0.44630
C457        C  0.78784671  0.29559361  0.51602715    -0.01050
C458        C  0.74550006  0.30073265  0.50581032    -0.12920
C459        C  0.70164706  0.26098332  0.48788537     0.01190
C460        C  0.70054105  0.21590654  0.47896019    -0.01130
C461        C  0.74314904  0.21097565  0.48869525    -0.12860
C462        C  0.78652438  0.25022610  0.50783852     0.01070
H463        H  0.74742886  0.33651706  0.51037057     0.14050
H464        H  0.74131830  0.17522893  0.48411143     0.14060
C465        C  0.82965819  0.24370540  0.51773455     0.35710
C466        C  0.65765993  0.26651220  0.48008479     0.35610
N467        N  0.86407506  0.23836069  0.52592087    -0.44640
N468        N  0.62238741  0.27087573  0.47397082    -0.44630
C469        C  0.29723143  0.78973236  0.52850402    -0.01050
C470        C  0.29606914  0.74985047  0.50727302    -0.12920
C471        C  0.25112148  0.71138913  0.48950654     0.01190
C472        C  0.20652552  0.71220835  0.49354743    -0.01130
C473        C  0.20728104  0.75129995  0.51545291    -0.12860
C474        C  0.25221572  0.79000880  0.53311648     0.01070
H475        H  0.33089750  0.75045585  0.50240277     0.14050
H476        H  0.17223581  0.75023042  0.52039326     0.14060
C477        C  0.25114627  0.83029099  0.55408673     0.35710
C478        C  0.25133934  0.67124550  0.46754651     0.35610
N479        N  0.25005198  0.86241916  0.57090592    -0.44640
N480        N  0.25144371  0.63920828  0.44971310    -0.44630
C481        C  0.79753060  0.49726443  0.43847353    -0.01050
C482        C  0.80011675  0.53547726  0.46334306    -0.12920
C483        C  0.75683883  0.53729679  0.47173291     0.01190
C484        C  0.70913948  0.50140699  0.45416209    -0.01130
C485        C  0.70613471  0.46322062  0.42901506    -0.12860
C486        C  0.74959937  0.46064137  0.42140307     0.01070
H487        H  0.83618913  0.56361930  0.47733717     0.14050
H488        H  0.66971206  0.43495476  0.41573845     0.14060
C489        C  0.74411171  0.42075677  0.39527448     0.35710
C490        C  0.76229035  0.57581424  0.49956071     0.35610
N491        N  0.73970216  0.38877717  0.37426932    -0.44640
N492        N  0.76679131  0.60639472  0.52226129    -0.44630
C493        C  0.19882023  0.50887624  0.56993466    -0.01050
C494        C  0.20189647  0.48805009  0.53300556    -0.12920
C495        C  0.24495688  0.48545365  0.52525823     0.01190
C496        C  0.28651378  0.50297191  0.55512560    -0.01130
C497        C  0.28312781  0.52278436  0.59266999    -0.12860
C498        C  0.24002206  0.52622019  0.60003962     0.01070
H499        H  0.17025622  0.47357788  0.50991746     0.14050
H500        H  0.31441912  0.53627989  0.61600321     0.14060
C501        C  0.23808181  0.54601980  0.63921061     0.35710
C502        C  0.24469245  0.46281643  0.48673295     0.35610
N503        N  0.23632290  0.56171504  0.67067339    -0.44640
N504        N  0.24444160  0.44458872  0.45590345    -0.44630
C505        C  0.97996430  0.46995951  0.79635943    -0.01050
C506        C  0.95411213  0.49357505  0.77814099    -0.12920
C507        C  0.95034160  0.49883886  0.73519077     0.01190
C508        C  0.97092690  0.47844208  0.70978367    -0.01130
C509        C  0.99617084  0.45419034  0.72799407    -0.12860
C510        C  0.00173479  0.45076217  0.77104345     0.01070
H511        H  0.93810440  0.50928999  0.79763983     0.14050
H512        H  0.01287518  0.43917051  0.70855012     0.14060
C513        C  0.02970752  0.42738479  0.78851819     0.35710
C514        C  0.92506132  0.52498801  0.71793033     0.35610
N515        N  0.05228103  0.40879007  0.80250694    -0.44640
N516        N  0.90491490  0.54610993  0.70418282    -0.44630
C517        C  0.02639921  0.53590723  0.21128080    -0.01050
C518        C  0.99596720  0.54700770  0.23372093    -0.12920
C519        C  0.99644512  0.54215932  0.27674350     0.01190
C520        C  0.02741163  0.52539696  0.29776639    -0.01130
C521        C  0.05696274  0.51317644  0.27540671    -0.12860
C522        C  0.05679410  0.51833422  0.23239534     0.01070
H523        H  0.97153321  0.55908067  0.21756542     0.14050
H524        H  0.07994208  0.49936752  0.29153776     0.14060
C525        C  0.08572032  0.50236366  0.21054438     0.35710
C526        C  0.96335816  0.55261680  0.29853235     0.35610
N527        N  0.10864226  0.48930295  0.19297810    -0.44640
N528        N  0.93679088  0.56073670  0.31612501    -0.44630
C529        C  0.70314329  0.20571816  0.01914769    -0.01050
C530        C  0.73359557  0.20071363  0.99153184    -0.12920
C531        C  0.77376148  0.24307948  0.97492155     0.01190
C532        C  0.78398154  0.29156049  0.98561041    -0.01130
C533        C  0.75214046  0.29637030  0.01158062    -0.12860
C534        C  0.71243594  0.25442149  0.02848195     0.01070
H535        H  0.72655499  0.16369412  0.98337154     0.14050
H536        H  0.76074652  0.33348503  0.02127714     0.14060
C537        C  0.68456566  0.26298013  0.05796691     0.35710
C538        C  0.80530833  0.23611718  0.94833884     0.35610
N539        N  0.66244435  0.26998298  0.08168976    -0.44640
N540        N  0.83045167  0.23055146  0.92681060    -0.44630
C541        C  0.22070915  0.72260825  0.02582941    -0.01050
C542        C  0.22093293  0.76820687  0.02855767    -0.12920
C543        C  0.26074989  0.81299973  0.01469742     0.01190
C544        C  0.30087243  0.81240253  0.99643805    -0.01130
C545        C  0.30162969  0.76695866  0.99604484    -0.12860
C546        C  0.26225362  0.72258468  0.01035617     0.01070
H547        H  0.18863035  0.76840914  0.03957455     0.14050
H548        H  0.33225950  0.76544802  0.98300405     0.14060
C549        C  0.26341221  0.67652623  0.00589830     0.35710
C550        C  0.25877404  0.85849144  0.01945401     0.35610
N551        N  0.26418501  0.63956752  0.00230642    -0.44640
N552        N  0.25669462  0.89464363  0.02378448    -0.44630
C553        C  0.69794377  0.48625062  0.99528118    -0.01050
C554        C  0.71330032  0.48142134  0.03663571    -0.12920
C555        C  0.76022818  0.48660392  0.04680690     0.01190
C556        C  0.79110856  0.49467370  0.01491410    -0.01130
C557        C  0.77201448  0.49098320  0.97311287    -0.12860
C558        C  0.72568343  0.48727176  0.96307845     0.01070
H559        H  0.69019249  0.47738433  0.06162489     0.14050
H560        H  0.79421243  0.49355786  0.94786972     0.14060
C561        C  0.70957512  0.48846545  0.92016607     0.35710
C562        C  0.77683441  0.48743018  0.08989023     0.35610
N563        N  0.69676716  0.48924840  0.88572877    -0.44640
N564        N  0.78996009  0.48814708  0.12446302    -0.44630
C565        C  0.19351766  0.47184900  0.98016223    -0.01050
C566        C  0.19491427  0.43760295  0.00939187    -0.12920
C567        C  0.23986280  0.44697428  0.03093092     0.01190
C568        C  0.28423748  0.49016387  0.02230035    -0.01130
C569        C  0.28294558  0.52299789  0.99171186    -0.12860
C570        C  0.23843085  0.51338869  0.96974285     0.01070
H571        H  0.16014999  0.40600290  0.01824650     0.14050
H572        H  0.31764272  0.55371438  0.98196157     0.14060
C573        C  0.23986757  0.54751711  0.93762668     0.35710
C574        C  0.23988458  0.41205088  0.06163381     0.35610
N575        N  0.24125877  0.57480637  0.91177692    -0.44640
N576        N  0.23999153  0.38436565  0.08651112    -0.44630
C577        C  0.72252280  0.70367488  0.56805548    -0.01050
C578        C  0.75724578  0.71074473  0.53971779    -0.12920
C579        C  0.80362795  0.75435346  0.54026817     0.01190
C580        C  0.81648559  0.79277979  0.56962828    -0.01130
C581        C  0.78328376  0.78435635  0.60019272    -0.12860
C582        C  0.73641363  0.73980021  0.59970595     0.01070
H583        H  0.74670575  0.68325917  0.51517151     0.14050
H584        H  0.79226930  0.81381111  0.62247455     0.14060
C585        C  0.70186245  0.73353251  0.62986115     0.35710
C586        C  0.83504150  0.76047652  0.50743170     0.35610
N587        N  0.67413718  0.72837362  0.65411530    -0.44640
N588        N  0.85892064  0.76477073  0.48028203    -0.44630
C589        C  0.29071110  0.29806187  0.43344496    -0.01050
C590        C  0.24605768  0.29861608  0.42115135    -0.12920
C591        C  0.19984330  0.25381650  0.41734649     0.01190
C592        C  0.19840716  0.20767044  0.42491660    -0.01130
C593        C  0.24387009  0.20718665  0.43231491    -0.12860
C594        C  0.28973175  0.25182594  0.43691688     0.01070
H595        H  0.24655876  0.33411709  0.41855748     0.14050
H596        H  0.24314116  0.17193669  0.43836670     0.14060
C597        C  0.33506776  0.24944024  0.44755160     0.35710
C598        C  0.15428687  0.25673355  0.41129756     0.35610
N599        N  0.37159223  0.24790008  0.45603779    -0.44640
N600        N  0.11779761  0.25915487  0.40674963    -0.44630
C601        C  0.72341472  0.01059028  0.53872320    -0.01050
C602        C  0.75633427  0.05035352  0.51478102    -0.12920
C603        C  0.79588615  0.04933187  0.49667790     0.01190
C604        C  0.80338045  0.00747069  0.50211001    -0.01130
C605        C  0.77257744  0.96932956  0.52858091    -0.12860
C606        C  0.73326056  0.97083153  0.54695535     0.01070
H607        H  0.74848636  0.08055077  0.50724928     0.14050
H608        H  0.77861245  0.93774223  0.53446942     0.14060
C609        C  0.70261547  0.93050661  0.57341542     0.35710
C610        C  0.82551831  0.09023539  0.47017270     0.35610
N611        N  0.67837780  0.89831757  0.59493303    -0.44640
N612        N  0.84902754  0.12309830  0.44891027    -0.44630
C613        C  0.28881090  0.01408591  0.46496809    -0.01050
C614        C  0.24454952  0.96904173  0.47038063    -0.12920
C615        C  0.20352458  0.96844964  0.48728461     0.01190
C616        C  0.20606620  0.01398565  0.49887737    -0.01130
C617        C  0.24888466  0.05916558  0.48980827    -0.12860
C618        C  0.28996615  0.05945729  0.47342071     0.01070
H619        H  0.24374263  0.93393017  0.46510786     0.14050
H620        H  0.25147080  0.09455837  0.49735703     0.14060
C621        C  0.33468692  0.10684840  0.46824690     0.35710
C622        C  0.16068941  0.92017022  0.49405518     0.35610
N623        N  0.37073304  0.14462524  0.46409177    -0.44640
N624        N  0.12672148  0.88114534  0.49936193    -0.44630
C625        C  0.97378348  0.78102205  0.49653285    -0.01050
C626        C  0.98776421  0.77440488  0.53801205    -0.12920
C627        C  0.97797178  0.72751011  0.55263796     0.01190
C628        C  0.95276357  0.68601215  0.52587875    -0.01130
C629        C  0.93189445  0.69170302  0.48676536    -0.12860
C630        C  0.94476190  0.73888294  0.47107994     0.01070
H631        H  0.00794976  0.80617114  0.55907824     0.14050
H632        H  0.91055678  0.65969360  0.46604931     0.14060
C633        C  0.93194485  0.74330315  0.42789113     0.35710
C634        C  0.99579079  0.72353382  0.59435192     0.35610
N635        N  0.92243765  0.74706476  0.39316631    -0.44640
N636        N  0.00981404  0.72045267  0.62793652    -0.44630
C637        C  0.03256051  0.31514915  0.47006333    -0.01050
C638        C  0.07477922  0.31477918  0.49003181    -0.12920
C639        C  0.07003736  0.27252101  0.51129443     0.01190
C640        C  0.02199463  0.23038659  0.51376885    -0.01130
C641        C  0.98018226  0.23101096  0.49324463    -0.12860
C642        C  0.98535076  0.27164506  0.46998431     0.01070
H643        H  0.11096758  0.34878001  0.49129487     0.14050
H644        H  0.94319119  0.19821068  0.49370550     0.14060
C645        C  0.94071437  0.26897743  0.44898051     0.35710
C646        C  0.11486294  0.27337977  0.52959358     0.35610
N647        N  0.90496723  0.26668545  0.43207773    -0.44640
N648        N  0.15095169  0.27423251  0.54412293    -0.44630
C649        C  0.01256326  0.01374968  0.79380532    -0.01050
C650        C  0.04728965  0.05957268  0.77695924    -0.12920
C651        C  0.05117860  0.06548172  0.73399595     0.01190
C652        C  0.01974390  0.02494638  0.70686165    -0.01130
C653        C  0.98428808  0.97972745  0.72375062    -0.12860
C654        C  0.98037406  0.97373341  0.76639428     0.01070
H655        H  0.07194530  0.09088621  0.79745599     0.14050
H656        H  0.95926500  0.94832944  0.70343626     0.14060
C657        C  0.94182916  0.92628545  0.78054830     0.35710
C658        C  0.08870464  0.11287779  0.71898323     0.35610
N659        N  0.91073480  0.88819271  0.79158171    -0.44640
N660        N  0.11886432  0.15094297  0.70707090    -0.44630
C661        C  0.98537431  0.99412698  0.20727257    -0.01050
C662        C  0.95798594  0.94762312  0.22649156    -0.12920
C663        C  0.95614597  0.94398856  0.26976063     0.01190
C664        C  0.98212565  0.98762405  0.29491013    -0.01130
C665        C  0.00988489  0.03384243  0.27558399    -0.12860
C666        C  0.01173623  0.03759478  0.23266430     0.01070
H667        H  0.93783212  0.91378121  0.20767118     0.14050
H668        H  0.03052817  0.06788468  0.29412262     0.14060
C669        C  0.04196927  0.08687791  0.21622154     0.35710
C670        C  0.92702618  0.89512690  0.28712321     0.35610
N671        N  0.06637801  0.12649726  0.20337241    -0.44640
N672        N  0.90363649  0.85581431  0.30085187    -0.44630
C673        C  0.78587588  0.78551021  0.04290331    -0.01050
C674        C  0.77858495  0.76988861  0.08432404    -0.12920
C675        C  0.73458481  0.72654160  0.09512642     0.01190
C676        C  0.69656589  0.69731032  0.06436183    -0.01130
C677        C  0.70333360  0.71284651  0.02316849    -0.12860
C678        C  0.74710033  0.75603821  0.01218131     0.01070
H679        H  0.80730500  0.79164609  0.10850060     0.14050
H680        H  0.67438653  0.69063267  0.99924275     0.14060
C681        C  0.75137352  0.76777773  0.96878096     0.35710
C682        C  0.72888078  0.71309153  0.13809577     0.35610
N683        N  0.75457192  0.77681468  0.93390899    -0.44640
N684        N  0.72415815  0.70240976  0.17258297    -0.44630
C685        C  0.29792592  0.31199054  0.94357369    -0.01050
C686        C  0.29752315  0.28286393  0.97784242    -0.12920
C687        C  0.25383139  0.23853967  0.98690546     0.01190
C688        C  0.20906926  0.22101935  0.96054435    -0.01130
C689        C  0.20991647  0.24992823  0.92571356    -0.12860
C690        C  0.25343659  0.29518234  0.91746039     0.01070
H691        H  0.33134826  0.29551995  0.99834215     0.14050
H692        H  0.17626975  0.23763772  0.90511010     0.14060
C693        C  0.25202815  0.32307465  0.88134997     0.35710
C694        C  0.25610983  0.21237380  0.02396957     0.35610
N695        N  0.25106098  0.34546924  0.85234628    -0.44640
N696        N  0.25743062  0.19135152  0.05380573    -0.44630
C697        C  0.70398711  0.00453875  0.94422726    -0.01050
C698        C  0.74881268  0.04124607  0.96469465    -0.12920
C699        C  0.79403030  0.04153871  0.96232529     0.01190
C700        C  0.79573149  0.00489063  0.93819847    -0.01130
C701        C  0.75143530  0.96929697  0.91603451    -0.12860
C702        C  0.70573932  0.96906720  0.91856817     0.01070
H703        H  0.74821930  0.06885808  0.98444706     0.14050
H704        H  0.75240936  0.94130962  0.89708724     0.14060
C705        C  0.66124753  0.93094996  0.89599661     0.35710
C706        C  0.83690430  0.07757495  0.98801793     0.35610
N707        N  0.62567744  0.90045111  0.87768766    -0.44640
N708        N  0.87071656  0.10636273  0.00907358    -0.44630
C709        C  0.30109476  0.01913383  0.06076610    -0.01050
C710        C  0.26930389  0.98748882  0.09022957    -0.12920
C711        C  0.22153937  0.98261709  0.09320522     0.01190
C712        C  0.20598672  0.01099447  0.06737847    -0.01130
C713        C  0.23875123  0.04408478  0.03941198    -0.12860
C714        C  0.28506105  0.04727494  0.03508730     0.01070
H715        H  0.28063014  0.96475245  0.10934153     0.14050
H716        H  0.22694879  0.06566481  0.01915785     0.14060
C717        C  0.31364968  0.07710481  0.00181326     0.35710
C718        C  0.18921983  0.94852994  0.12285044     0.35610
N719        N  0.33526377  0.09995555  0.97422213    -0.44640
N720        N  0.16316319  0.92123152  0.14658907    -0.44630
C721        C  0.00491835  0.79104927  0.94923078    -0.01050
C722        C  0.97255188  0.75742698  0.91757156    -0.12920
C723        C  0.97149907  0.71172248  0.91049801     0.01190
C724        C  0.00384189  0.69900706  0.93473996    -0.01130
C725        C  0.03770130  0.73345640  0.96498409    -0.12860
C726        C  0.03823991  0.77854821  0.97269678     0.01070
H727        H  0.94696065  0.76611371  0.89898744     0.14050
H728        H  0.06295275  0.72438040  0.98371707     0.14060
C729        C  0.07349304  0.81092208  0.00526740     0.35710
C730        C  0.93782374  0.67899320  0.87746834     0.35610
N731        N  0.10165445  0.83656132  0.03154634    -0.44640
N732        N  0.91111365  0.65283463  0.85080384    -0.44630
C733        C  0.00766795  0.31155550  0.06576528    -0.01050
C734        C  0.98300906  0.27145822  0.09270222    -0.12920
C735        C  0.97936953  0.22454626  0.08588538     0.01190
C736        C  0.00020054  0.21700738  0.05137982    -0.01130
C737        C  0.02360938  0.25667859  0.02402357    -0.12860
C738        C  0.02732516  0.30333060  0.03075867     0.01070
H739        H  0.96635342  0.27671640  0.11899988     0.14050
H740        H  0.03877943  0.25105401  0.99687226     0.14060
C741        C  0.04767915  0.34053425  0.99921675     0.35710
C742        C  0.95169362  0.18395378  0.11323802     0.35610
N743        N  0.06302695  0.36929475  0.97302920    -0.44640
N744        N  0.92906191  0.15123457  0.13491696    -0.44630
loop_ 
_geom_bond_atom_site_label_1 
_geom_bond_atom_site_label_2 
_geom_bond_distance 
_geom_bond_site_symmetry_2 
_ccdc_geom_bond_type 
N1            N2   1.326       .  A
N1            N7   1.319   1_565  A
N1          Mn30   2.227       .  S
N2            C9   1.357   1_565  A
N3            N5   1.320   1_445  A
N3            N4   1.320       .  A
N3          Mn19   2.198       .  S
N4           C10   1.351       .  A
N5            N6   1.322       .  A
N5          Mn30   2.229       .  S
N6           C10   1.356   1_665  A
N7            N8   1.317       .  A
N7          Mn19   2.198   1_655  S
N8            C9   1.350       .  A
C9          C700   1.485       .  S
C10         C649   1.491       .  S
N11          N17   1.315   1_554  A
N11          N12   1.321       .  A
N11         Mn41   2.222       .  S
N12          C20   1.355   1_554  A
N13          N14   1.321       .  A
N13          N15   1.316   1_655  A
N13         Mn19   2.210   1_654  S
N14          C21   1.352       .  A
N15          N16   1.327       .  A
N15         Mn41   2.225       .  S
N16          C21   1.358   1_455  A
N17          N18   1.327       .  A
N17         Mn19   2.218       .  S
N18          C20   1.359       .  A
Mn19        Cl43   2.558   1_456  S
C20         C688   1.508       .  S
C21         C736   1.491   1_655  S
N22          N23   1.330       .  A
N22          N28   1.318       .  A
N22         Mn30   2.248       .  S
N23          C31   1.363   1_655  A
N24          N26   1.318   1_554  A
N24          N25   1.328       .  A
N24         Mn42   2.240       .  S
N25          C32   1.361       .  A
N26          N27   1.323       .  A
N26         Mn30   2.225       .  S
N27          C32   1.356   1_556  A
N28          N29   1.320   1_655  A
N28         Mn42   2.211   1_556  S
N29          C31   1.352       .  A
Mn30        Cl43   2.564   1_566  S
C31         C721   1.508       .  S
C32         C673   1.512       .  S
N33          N34   1.319       .  A
N33          N39   1.318   1_445  A
N33         Mn41   2.213       .  S
N34          C44   1.354   1_445  A
N35          N36   1.325       .  A
N35          N37   1.318   1_565  A
N35         Mn42   2.228   1_455  S
N36          C45   1.357   1_565  A
N37          N38   1.319       .  A
N37         Mn41   2.202       .  S
N38          C45   1.351       .  A
N39          N40   1.322       .  A
N39         Mn42   2.206       .  S
N40          C44   1.354       .  A
Mn41        Cl43   2.555   1_455  S
Mn42        Cl43   2.559   1_565  S
C44         C661   1.494       .  S
C45         C712   1.482       .  S
N46          N47   1.312       .  A
N46          N52   1.316       .  A
N46         Mn75   2.167       .  S
N47          C54   1.343       .  A
N48          N50   1.314       .  A
N48          N49   1.301   1_455  A
N48         Mn64   2.134   1_455  S
N49          C55   1.333   1_655  A
N50          N51   1.328       .  A
N50         Mn75   2.219       .  S
N51          C55   1.363       .  A
N52          N53   1.329       .  A
N52         Mn64   2.242   1_455  S
N53          C54   1.362       .  A
C54         C592   1.478       .  S
C55         C640   1.467       .  S
N56          N62   1.314   1_565  A
N56          N57   1.327       .  A
N56         Mn86   2.218       .  S
N57          C65   1.358   1_565  A
N58          N59   1.314       .  A
N58          N60   1.314   1_545  A
N58         Mn64   2.173       .  S
N59          C66   1.349   1_545  A
N60          N61   1.328       .  A
N60         Mn86   2.235       .  S
N61          C66   1.362       .  A
N62          N63   1.322       .  A
N62         Mn64   2.203       .  S
N63          C65   1.352       .  A
Mn64        Cl88   2.492   1_655  S
C65         C604   1.504       .  S
C66         C664   1.494       .  S
N67          N68   1.328       .  A
N67          N73   1.315   1_545  A
N67         Mn75   2.234       .  S
N68          C76   1.362       .  A
N69          N71   1.313   1_565  A
N69          N70   1.322       .  A
N69         Mn87   2.203       .  S
N70          C77   1.352   1_565  A
N71          N72   1.325       .  A
N71         Mn75   2.204       .  S
N72          C77   1.356       .  A
N73          N74   1.313       .  A
N73         Mn87   2.172       .  S
N74          C76   1.347   1_565  A
Mn75        Cl88   2.571       .  S
C76         C652   1.489       .  S
C77         C616   1.502       .  S
N78          N79   1.327       .  A
N78          N84   1.316   1_655  A
N78         Mn86   2.232       .  S
N79          C89   1.362       .  A
N80          N81   1.331       .  A
N80          N82   1.316       .  A
N80         Mn87   2.250   1_655  S
N81          C90   1.362       .  A
N82          N83   1.313       .  A
N82         Mn86   2.168       .  S
N83          C90   1.345       .  A
N84          N85   1.304       .  A
N84         Mn87   2.136       .  S
N85          C89   1.332   1_455  A
Mn86        Cl88   2.562   1_665  S
Mn87        Cl88   2.489   1_565  S
C89         C625   1.476       .  S
C90         C580   1.483       .  S
N91          N92   1.333       .  A
N91          N97   1.317   1_556  A
N91        Mn120   2.272       .  S
N92          C99   1.366       .  A
N93          N95   1.314       .  A
N93          N94   1.322       .  A
N93        Mn109   2.192       .  S
N94         C100   1.357       .  A
N95          N96   1.297   1_554  A
N95        Mn120   2.120   1_554  S
N96         C100   1.331   1_556  A
N97          N98   1.312       .  A
N97        Mn109   2.158       .  S
N98          C99   1.340   1_554  A
C99         C532   1.484       .  S
C100        C556   1.451       .  S
N101        N107   1.316   1_455  A
N101        N102   1.319       .  A
N101       Mn131   2.185       .  S
N102        C110   1.350       .  A
N103        N104   1.324       .  A
N103        N105   1.313   1_655  A
N103       Mn109   2.193       .  S
N104        C111   1.353   1_655  A
N105        N106   1.325       .  A
N105       Mn131   2.232       .  S
N106        C111   1.357       .  A
N107        N108   1.320       .  A
N107       Mn109   2.200       .  S
N108        C110   1.351   1_655  A
Mn109      Cl133   2.546   1_655  S
C110        C517   1.474       .  S
C111        C733   1.493       .  S
N112        N113   1.327       .  A
N112        N118   1.312   1_655  A
N112       Mn120   2.230       .  S
N113        C121   1.357   1_655  A
N114        N116   1.315   1_455  A
N114        N115   1.321       .  A
N114       Mn132   2.208       .  S
N115        C122   1.352   1_455  A
N116        N117   1.318       .  A
N116       Mn120   2.178       .  S
N117        C122   1.349       .  A
N118        N119   1.324       .  A
N118       Mn132   2.203       .  S
N119        C121   1.356       .  A
Mn120      Cl133   2.508   1_656  S
C121        C724   1.498       .  S
C122        C505   1.471       .  S
N123        N124   1.299       .  A
N123        N129   1.312   1_554  A
N123       Mn131   2.115       .  S
N124        C134   1.334   1_554  A
N125        N126   1.313       .  A
N125        N127   1.317   1_556  A
N125       Mn132   2.173       .  S
N126        C135   1.341   1_556  A
N127        N128   1.331       .  A
N127       Mn131   2.253       .  S
N128        C135   1.364       .  A
N129        N130   1.323       .  A
N129       Mn132   2.201       .  S
N130        C134   1.361       .  A
Mn131      Cl133   2.514       .  S
Mn132      Cl133   2.543   1_556  S
C134        C565   1.447       .  S
C135        C541   1.480       .  S
N136        N137   1.324   1_655  A
N136        N142   1.313   1_655  A
N136       Mn165   2.213       .  S
N137        C144   1.362       .  A
N138        N140   1.314       .  A
N138        N139   1.323       .  A
N138       Mn154   2.200       .  S
N139        C145   1.356       .  A
N140        N141   1.304       .  A
N140       Mn165   2.134       .  S
N141        C145   1.336       .  A
N142        N143   1.305       .  A
N142       Mn154   2.143   1_455  S
N143        C144   1.338       .  A
C144        C637   1.454       .  S
C145        C457   1.440       .  S
N146        N152   1.315       .  A
N146        N147   1.322       .  A
N146       Mn176   2.205   1_655  S
N147        C155   1.354       .  A
N148        N149   1.321       .  A
N148        N150   1.313       .  A
N148       Mn154   2.194   1_455  S
N149        C156   1.350       .  A
N150        N151   1.332       .  A
N150       Mn176   2.257       .  S
N151        C156   1.364       .  A
N152        N153   1.318       .  A
N152       Mn154   2.185       .  S
N153        C155   1.349       .  A
Mn154      Cl178   2.511       .  S
C155        C508   1.473       .  S
C156        C493   1.502       .  S
N157        N158   1.331       .  A
N157        N163   1.311       .  A
N157       Mn165   2.235       .  S
N158        C166   1.363       .  A
N159        N161   1.313       .  A
N159        N160   1.317       .  A
N159       Mn177   2.172       .  S
N160        C167   1.348       .  A
N161        N162   1.321       .  A
N161       Mn165   2.199   1_455  S
N162        C167   1.353       .  A
N163        N164   1.322       .  A
N163       Mn177   2.205   1_655  S
N164        C166   1.352       .  A
Mn165      Cl178   2.543       .  S
C166        C481   1.508       .  S
C167        C520   1.467       .  S
N168        N169   1.303       .  A
N168        N174   1.315       .  A
N168       Mn176   2.129       .  S
N169        C179   1.335       .  A
N170        N171   1.297       .  A
N170        N172   1.312       .  A
N170       Mn177   2.110   1_655  S
N171        C180   1.330       .  A
N172        N173   1.333       .  A
N172       Mn176   2.254   1_655  S
N173        C180   1.372       .  A
N174        N175   1.323       .  A
N174       Mn177   2.204       .  S
N175        C179   1.356       .  A
Mn176      Cl178   2.549   1_455  S
Mn177      Cl178   2.502   1_455  S
C179        C472   1.439       .  S
C180        C628   1.479       .  S
N181        N182   1.320       .  A
N181        N187   1.315       .  A
N181       Mn210   2.198       .  S
N182        C189   1.351       .  A
N183        N185   1.313   1_545  A
N183        N184   1.328       .  A
N183       Mn199   2.240       .  S
N184        C190   1.364       .  A
N185        N186   1.310       .  A
N185       Mn210   2.148       .  S
N186        C190   1.343   1_565  A
N187        N188   1.327       .  A
N187       Mn199   2.219   1_565  S
N188        C189   1.358       .  A
C189        C544   1.501       .  S
C190        C409   1.489       .  S
N191        N197   1.314   1_554  A
N191        N192   1.303       .  A
N191       Mn221   2.133       .  S
N192        C200   1.333   1_554  A
N193        N194   1.314       .  A
N193        N195   1.316       .  A
N193       Mn199   2.174   1_554  S
N194        C201   1.345       .  A
N195        N196   1.330       .  A
N195       Mn221   2.245       .  S
N196        C201   1.362       .  A
N197        N198   1.328       .  A
N197       Mn199   2.236       .  S
N198        C200   1.367       .  A
Mn199      Cl223   2.575   1_556  S
C200        C445   1.460       .  S
C201        C709   1.482       .  S
N202        N203   1.328       .  A
N202        N208   1.314   1_565  A
N202       Mn210   2.229       .  S
N203        C211   1.360   1_565  A
N204        N206   1.314       .  A
N204        N205   1.326       .  A
N204       Mn222   2.214   1_565  S
N205        C212   1.360       .  A
N206        N207   1.303       .  A
N206       Mn210   2.133   1_554  S
N207        C212   1.333       .  A
N208        N209   1.313       .  A
N208       Mn222   2.173   1_556  S
N209        C211   1.348       .  A
Mn210      Cl223   2.488   1_566  S
C211        C697   1.486       .  S
C212        C436   1.452       .  S
N213        N214   1.314       .  A
N213        N219   1.315       .  A
N213       Mn221   2.165       .  S
N214        C224   1.345       .  A
N215        N216   1.327       .  A
N215        N217   1.314       .  A
N215       Mn222   2.208       .  S
N216        C225   1.357       .  A
N217        N218   1.321       .  A
N217       Mn221   2.204       .  S
N218        C225   1.351       .  A
N219        N220   1.324   1_545  A
N219       Mn222   2.227       .  S
N220        C224   1.357   1_565  A
Mn221      Cl223   2.492       .  S
Mn222      Cl223   2.568       .  S
C224        C424   1.465       .  S
C225        C529   1.497       .  S
N226        N227   1.327       .  A
N226        N232   1.312       .  A
N226       Mn255   2.237       .  S
N227        C234   1.361       .  A
N228        N230   1.319   1_565  A
N228        N229   1.318       .  A
N228       Mn244   2.187       .  S
N229        C235   1.346       .  A
N230        N231   1.322       .  A
N230       Mn255   2.207       .  S
N231        C235   1.353   1_545  A
N232        N233   1.321       .  A
N232       Mn244   2.191   1_545  S
N233        C234   1.353       .  A
C234        C400   1.506       .  S
C235        C412   1.472       .  S
N236        N242   1.313       .  A
N236        N237   1.303       .  A
N236       Mn266   2.127       .  S
N237        C245   1.336       .  A
N238        N239   1.311       .  A
N238        N240   1.316   1_545  A
N238       Mn244   2.158   1_545  S
N239        C246   1.339       .  A
N240        N241   1.332       .  A
N240       Mn266   2.259       .  S
N241        C246   1.366   1_565  A
N242        N243   1.324       .  A
N242       Mn244   2.206       .  S
N243        C245   1.360       .  A
Mn244      Cl268   2.528   1_565  S
C245        C469   1.451       .  S
C246        C613   1.480       .  S
N247        N248   1.335       .  A
N247        N253   1.318       .  A
N247       Mn255   2.272       .  S
N248        C256   1.368       .  A
N249        N251   1.313       .  A
N249        N250   1.322       .  A
N249       Mn267   2.202       .  S
N250        C257   1.358       .  A
N251        N252   1.304       .  A
N251       Mn255   2.131       .  S
N252        C257   1.337       .  A
N253        N254   1.312   1_545  A
N253       Mn267   2.165       .  S
N254        C256   1.339   1_565  A
Mn255      Cl268   2.541       .  S
C256        C601   1.487       .  S
C257        C460   1.441       .  S
N258        N259   1.321       .  A
N258        N264   1.317   1_565  A
N258       Mn266   2.192       .  S
N259        C269   1.353   1_565  A
N260        N261   1.321       .  A
N260        N262   1.313       .  A
N260       Mn267   2.198   1_565  S
N261        C270   1.354       .  A
N262        N263   1.326       .  A
N262       Mn266   2.228       .  S
N263        C270   1.358       .  A
N264        N265   1.318       .  A
N264       Mn267   2.192       .  S
N265        C269   1.349       .  A
Mn266      Cl268   2.543   1_565  S
Mn267      Cl268   2.524       .  S
C269        C421   1.482       .  S
C270        C388   1.497       .  S
N271        N272   1.328       .  A
N271        N277   1.316       .  A
N271       Mn300   2.238       .  S
N272        C279   1.363       .  A
N273        N275   1.315   1_556  A
N273        N274   1.322       .  A
N273       Mn289   2.194       .  S
N274        C280   1.356       .  A
N275        N276   1.297       .  A
N275       Mn300   2.113       .  S
N276        C280   1.330   1_554  A
N277        N278   1.304   1_554  A
N277       Mn289   2.133   1_554  S
N278        C279   1.333   1_556  A
C279        C448   1.457       .  S
C280        C553   1.446       .  S
N281        N287   1.313       .  A
N281        N282   1.322       .  A
N281       Mn311   2.195       .  S
N282        C290   1.355       .  A
N283        N284   1.323       .  A
N283        N285   1.310       .  A
N283       Mn289   2.191       .  S
N284        C291   1.352       .  A
N285        N286   1.328       .  A
N285       Mn311   2.228       .  S
N286        C291   1.359       .  A
N287        N288   1.319       .  A
N287       Mn289   2.197       .  S
N288        C290   1.352       .  A
Mn289      Cl313   2.515   1_556  S
C290        C364   1.484       .  S
C291        C685   1.496       .  S
N292        N293   1.327       .  A
N292        N298   1.310       .  A
N292       Mn300   2.220       .  S
N293        C301   1.357       .  A
N294        N296   1.313       .  A
N294        N295   1.321       .  A
N294       Mn312   2.197       .  S
N295        C302   1.353       .  A
N296        N297   1.320       .  A
N296       Mn300   2.191       .  S
N297        C302   1.353       .  A
N298        N299   1.326       .  A
N298       Mn312   2.210       .  S
N299        C301   1.355       .  A
Mn300      Cl313   2.519       .  S
C301        C676   1.497       .  S
C302        C376   1.478       .  S
N303        N304   1.298       .  A
N303        N309   1.314   1_556  A
N303       Mn311   2.114       .  S
N304        C314   1.331   1_556  A
N305        N306   1.303       .  A
N305        N307   1.315   1_554  A
N305       Mn312   2.129       .  S
N306        C315   1.332   1_554  A
N307        N308   1.328       .  A
N307       Mn311   2.240       .  S
N308        C315   1.365       .  A
N309        N310   1.326       .  A
N309       Mn312   2.216       .  S
N310        C314   1.361       .  A
Mn311      Cl313   2.527   1_556  S
Mn312      Cl313   2.521       .  S
C314        C568   1.441       .  S
C315        C433   1.455       .  S
N316        N317   1.323       .  A
N316        N322   1.317       .  A
N316       Mn345   2.205       .  S
N317        C324   1.353       .  A
N318        N320   1.318       .  A
N318        N319   1.332       .  A
N318       Mn334   2.262       .  S
N319        C325   1.363       .  A
N320        N321   1.322       .  A
N320       Mn345   2.212       .  S
N321        C325   1.352       .  A
N322        N323   1.320       .  A
N322       Mn334   2.212       .  S
N323        C324   1.354       .  A
C324        C589   1.479       .  S
C325        C496   1.506       .  S
N326        N332   1.318       .  A
N326        N327   1.319       .  A
N326       Mn356   2.204       .  S
N327        C335   1.352       .  A
N328        N329   1.327       .  A
N328        N330   1.317       .  A
N328       Mn334   2.244       .  S
N329        C336   1.361       .  A
N330        N331   1.321       .  A
N330       Mn356   2.206       .  S
N331        C336   1.353       .  A
N332        N333   1.323       .  A
N332       Mn334   2.216       .  S
N333        C335   1.356       .  A
Mn334      Cl358   2.561       .  S
C335        C361   1.484       .  S
C336        C397   1.507       .  S
N337        N338   1.321       .  A
N337        N343   1.318       .  A
N337       Mn345   2.203       .  S
N338        C346   1.352       .  A
N339        N341   1.316       .  A
N339        N340   1.321       .  A
N339       Mn357   2.207       .  S
N340        C347   1.355       .  A
N341        N342   1.319       .  A
N341       Mn345   2.202       .  S
N342        C347   1.353       .  A
N343        N344   1.326       .  A
N343       Mn357   2.239       .  S
N344        C346   1.359       .  A
Mn345      Cl358   2.555       .  S
C346        C385   1.495       .  S
C347        C373   1.489       .  S
N348        N349   1.324       .  A
N348        N354   1.318       .  A
N348       Mn356   2.217       .  S
N349        C359   1.353       .  A
N350        N351   1.317       .  A
N350        N352   1.316       .  A
N350       Mn357   2.202       .  S
N351        C360   1.352       .  A
N352        N353   1.326       .  A
N352       Mn356   2.220       .  S
N353        C360   1.356       .  A
N354        N355   1.329       .  A
N354       Mn357   2.254       .  S
N355        C359   1.361       .  A
Mn356      Cl358   2.555       .  S
Mn357      Cl358   2.556       .  S
C359        C484   1.501       .  S
C360        C577   1.480       .  S
C361        C362   1.405       .  A
C361        C366   1.412       .  A
C362        C363   1.400       .  A
C362        H367   1.085       .  S
C363        C364   1.412       .  A
C363        C370   1.444       .  S
C364        C365   1.407       .  A
C365        C366   1.403       .  A
C365        H368   1.085       .  S
C366        C369   1.444       .  S
C369        N371   1.157       .  T
C370        N372   1.157       .  T
C373        C374   1.408       .  A
C373        C378   1.416       .  A
C374        C375   1.401       .  A
C374        H379   1.084       .  S
C375        C376   1.408       .  A
C375        C382   1.444       .  S
C376        C377   1.404       .  A
C377        C378   1.402       .  A
C377        H380   1.085       .  S
C378        C381   1.444       .  S
C381        N383   1.158       .  T
C382        N384   1.157       .  T
C385        C386   1.403       .  A
C385        C390   1.418       .  A
C386        C387   1.405       .  A
C386        H391   1.084       .  S
C387        C388   1.417       .  A
C387        C394   1.441       .  S
C388        C389   1.405       .  A
C389        C390   1.408       .  A
C389        H392   1.084       .  S
C390        C393   1.444       .  S
C393        N395   1.157       .  T
C394        N396   1.156       .  T
C397        C398   1.406       .  A
C397        C402   1.421       .  A
C398        C399   1.409       .  A
C398        H403   1.084       .  S
C399        C400   1.421       .  A
C399        C406   1.444       .  S
C400        C401   1.406       .  A
C401        C402   1.408       .  A
C401        H404   1.084       .  S
C402        C405   1.444       .  S
C405        N407   1.158       .  T
C406        N408   1.158       .  T
C409        C410   1.413   1_545  A
C409        C414   1.412       .  A
C410        C411   1.396       .  A
C410        H415   1.084       .  S
C411        C412   1.401       .  A
C411        C418   1.445       .  S
C412        C413   1.407   1_565  A
C413        C414   1.404       .  A
C413        H416   1.084       .  S
C414        C417   1.443       .  S
C417        N419   1.157       .  T
C418        N420   1.157       .  T
C421        C422   1.405       .  A
C421        C426   1.418   1_545  A
C422        C423   1.398       .  A
C422        H427   1.085       .  S
C423        C424   1.408       .  A
C423        C430   1.445       .  S
C424        C425   1.398   1_545  A
C425        C426   1.401       .  A
C425        H428   1.085       .  S
C426        C429   1.444       .  S
C429        N431   1.157       .  T
C430        N432   1.157       .  T
C433        C434   1.401       .  A
C433        C438   1.414   1_556  A
C434        C435   1.400   1_556  A
C434        H439   1.085       .  S
C435        C436   1.413       .  A
C435        C442   1.444       .  S
C436        C437   1.395       .  A
C437        C438   1.390       .  A
C437        H440   1.086       .  S
C438        C441   1.443       .  S
C441        N443   1.155       .  T
C442        N444   1.157       .  T
C445        C446   1.399       .  A
C445        C450   1.413       .  A
C446        C447   1.396   1_556  A
C446        H451   1.078       .  S
C447        C448   1.408       .  A
C447        C454   1.441       .  S
C448        C449   1.402       .  A
C449        C450   1.399   1_554  A
C449        H452   1.085       .  S
C450        C453   1.445       .  S
C453        N455   1.157       .  T
C454        N456   1.155       .  T
C457        C458   1.399       .  A
C457        C462   1.407       .  A
C458        C459   1.390       .  A
C458        H463   1.085       .  S
C459        C460   1.407       .  A
C459        C466   1.445       .  S
C460        C461   1.401       .  A
C461        C462   1.392       .  A
C461        H464   1.086       .  S
C462        C465   1.445       .  S
C465        N467   1.157       .  T
C466        N468   1.157       .  T
C469        C470   1.406       .  A
C469        C474   1.408       .  A
C470        C471   1.390       .  A
C470        H475   1.086       .  S
C471        C472   1.400       .  A
C471        C478   1.445       .  S
C472        C473   1.402       .  A
C473        C474   1.392       .  A
C473        H476   1.086       .  S
C474        C477   1.445       .  S
C477        N479   1.157       .  T
C478        N480   1.157       .  T
C481        C482   1.409       .  A
C481        C486   1.417       .  A
C482        C483   1.407       .  A
C482        H487   1.084       .  S
C483        C484   1.411       .  A
C483        C490   1.443       .  S
C484        C485   1.409       .  A
C485        C486   1.418       .  A
C485        H488   1.084       .  S
C486        C489   1.442       .  S
C489        N491   1.157       .  T
C490        N492   1.157       .  T
C493        C494   1.405       .  A
C493        C498   1.415       .  A
C494        C495   1.407       .  A
C494        H499   1.085       .  S
C495        C496   1.417       .  A
C495        C502   1.445       .  S
C496        C497   1.410       .  A
C497        C498   1.419       .  A
C497        H500   1.084       .  S
C498        C501   1.442       .  S
C501        N503   1.157       .  T
C502        N504   1.157       .  T
C505        C506   1.406       .  A
C505        C510   1.406   1_655  A
C506        C507   1.400       .  A
C506        H511   1.085       .  S
C507        C508   1.406       .  A
C507        C514   1.443       .  S
C508        C509   1.406       .  A
C509        C510   1.400   1_655  A
C509        H512   1.085   1_655  S
C510        C513   1.444       .  S
C513        N515   1.157       .  T
C514        N516   1.157       .  T
C517        C518   1.400   1_455  A
C517        C522   1.416       .  A
C518        C519   1.399       .  A
C518        H523   1.084       .  S
C519        C520   1.412   1_655  A
C519        C526   1.445       .  S
C520        C521   1.397       .  A
C521        C522   1.400       .  A
C521        H524   1.084       .  S
C522        C525   1.445       .  S
C525        N527   1.157       .  T
C526        N528   1.157       .  T
C529        C530   1.410   1_554  A
C529        C534   1.415       .  A
C530        C531   1.411       .  A
C530        H535   1.084       .  S
C531        C532   1.410       .  A
C531        C538   1.442       .  S
C532        C533   1.405   1_556  A
C533        C534   1.403       .  A
C533        H536   1.086       .  S
C534        C537   1.445       .  S
C537        N539   1.157       .  T
C538        N540   1.157       .  T
C541        C542   1.403       .  A
C541        C546   1.410       .  A
C542        C543   1.409       .  A
C542        H547   1.085       .  S
C543        C544   1.419   1_554  A
C543        C550   1.442       .  S
C544        C545   1.409       .  A
C545        C546   1.402   1_556  A
C545        H548   1.085       .  S
C546        C549   1.445       .  S
C549        N551   1.157       .  T
C550        N552   1.157       .  T
C553        C554   1.414   1_556  A
C553        C558   1.391       .  A
C554        C555   1.383       .  A
C554        H559   1.085       .  S
C555        C556   1.395       .  A
C555        C562   1.444       .  S
C556        C557   1.417   1_554  A
C557        C558   1.383       .  A
C557        H560   1.085       .  S
C558        C561   1.444       .  S
C561        N563   1.157       .  T
C562        N564   1.157       .  T
C565        C566   1.411   1_556  A
C565        C570   1.400       .  A
C566        C567   1.393       .  A
C566        H571   1.085       .  S
C567        C568   1.398       .  A
C567        C574   1.444       .  S
C568        C569   1.408   1_554  A
C569        C570   1.386       .  A
C569        H572   1.083       .  S
C570        C573   1.445       .  S
C573        N575   1.157       .  T
C574        N576   1.157       .  T
C577        C578   1.397       .  A
C577        C582   1.412       .  A
C578        C579   1.393       .  A
C578        H583   1.085       .  S
C579        C580   1.414       .  A
C579        C586   1.442       .  S
C580        C581   1.407       .  A
C581        C582   1.414       .  A
C581        H584   1.084       .  S
C582        C585   1.442       .  S
C585        N587   1.157       .  T
C586        N588   1.155       .  T
C589        C590   1.406       .  A
C589        C594   1.408       .  A
C590        C591   1.406       .  A
C590        H595   1.085       .  S
C591        C592   1.412       .  A
C591        C598   1.444       .  S
C592        C593   1.405       .  A
C593        C594   1.400       .  A
C593        H596   1.085       .  S
C594        C597   1.444       .  S
C597        N599   1.157       .  T
C598        N600   1.157       .  T
C601        C602   1.405       .  A
C601        C606   1.411   1_545  A
C602        C603   1.407       .  A
C602        H607   1.085       .  S
C603        C604   1.419       .  A
C603        C610   1.444       .  S
C604        C605   1.410   1_545  A
C605        C606   1.411       .  A
C605        H608   1.084       .  S
C606        C609   1.442       .  S
C609        N611   1.157       .  T
C610        N612   1.157       .  T
C613        C614   1.401   1_545  A
C613        C618   1.411       .  A
C614        C615   1.407       .  A
C614        H619   1.085       .  S
C615        C616   1.422   1_565  A
C615        C622   1.443       .  S
C616        C617   1.408       .  A
C617        C618   1.405       .  A
C617        H620   1.084       .  S
C618        C621   1.444       .  S
C621        N623   1.157       .  T
C622        N624   1.157       .  T
C625        C626   1.419       .  A
C625        C630   1.398       .  A
C626        C627   1.396       .  A
C626        H631   1.084   1_655  S
C627        C628   1.399       .  A
C627        C634   1.443       .  S
C628        C629   1.420       .  A
C629        C630   1.394       .  A
C629        H632   1.085       .  S
C630        C633   1.445       .  S
C633        N635   1.157       .  T
C634        N636   1.157   1_655  T
C637        C638   1.407       .  A
C637        C642   1.406   1_455  A
C638        C639   1.401       .  A
C638        H643   1.085       .  S
C639        C640   1.410       .  A
C639        C646   1.443       .  S
C640        C641   1.407   1_455  A
C641        C642   1.388       .  A
C641        H644   1.086       .  S
C642        C645   1.446       .  S
C645        N647   1.157       .  T
C646        N648   1.157       .  T
C649        C650   1.410       .  A
C649        C654   1.413   1_445  A
C650        C651   1.407       .  A
C650        H655   1.084       .  S
C651        C652   1.412       .  A
C651        C658   1.443       .  S
C652        C653   1.407   1_445  A
C653        C654   1.397       .  A
C653        H656   1.085       .  S
C654        C657   1.444       .  S
C657        N659   1.157       .  T
C658        N660   1.157       .  T
C661        C662   1.410       .  A
C661        C666   1.415   1_665  A
C662        C663   1.408       .  A
C662        H667   1.084       .  S
C663        C664   1.414       .  A
C663        C670   1.443       .  S
C664        C665   1.407   1_665  A
C665        C666   1.397       .  A
C665        H668   1.084       .  S
C666        C669   1.445       .  S
C669        N671   1.158       .  T
C670        N672   1.157       .  T
C673        C674   1.412       .  A
C673        C678   1.423       .  A
C674        C675   1.414       .  A
C674        H679   1.084       .  S
C675        C676   1.411       .  A
C675        C682   1.442       .  S
C676        C677   1.403       .  A
C677        C678   1.410       .  A
C677        H680   1.085   1_554  S
C678        C681   1.444   1_554  S
C681        N683   1.157       .  T
C682        N684   1.157       .  T
C685        C686   1.405       .  A
C685        C690   1.411       .  A
C686        C687   1.407       .  A
C686        H691   1.085       .  S
C687        C688   1.420       .  A
C687        C694   1.444   1_556  S
C688        C689   1.412       .  A
C689        C690   1.413       .  A
C689        H692   1.083       .  S
C690        C693   1.443       .  S
C693        N695   1.157       .  T
C694        N696   1.158       .  T
C697        C698   1.403       .  A
C697        C702   1.414   1_545  A
C698        C699   1.394       .  A
C698        H703   1.086       .  S
C699        C700   1.413       .  A
C699        C706   1.445       .  S
C700        C701   1.407   1_545  A
C701        C702   1.410       .  A
C701        H704   1.085       .  S
C702        C705   1.442       .  S
C705        N707   1.157       .  T
C706        N708   1.157   1_556  T
C709        C710   1.406   1_545  A
C709        C714   1.414       .  A
C710        C711   1.411       .  A
C710        H715   1.084       .  S
C711        C712   1.413   1_565  A
C711        C718   1.443       .  S
C712        C713   1.399       .  A
C713        C714   1.396       .  A
C713        H716   1.085       .  S
C714        C717   1.443       .  S
C717        N719   1.156   1_554  T
C718        N720   1.157       .  T
C721        C722   1.410   1_455  A
C721        C726   1.421       .  A
C722        C723   1.414       .  A
C722        H727   1.084       .  S
C723        C724   1.413   1_655  A
C723        C730   1.443       .  S
C724        C725   1.403       .  A
C725        C726   1.407       .  A
C725        H728   1.085       .  S
C726        C729   1.445   1_556  S
C729        N731   1.158       .  T
C730        N732   1.157       .  T
C733        C734   1.408   1_455  A
C733        C738   1.413       .  A
C734        C735   1.412       .  A
C734        H739   1.085       .  S
C735        C736   1.412   1_655  A
C735        C742   1.442       .  S
C736        C737   1.403       .  A
C737        C738   1.403       .  A
C737        H740   1.085   1_554  S
C738        C741   1.442   1_554  S
C741        N743   1.156       .  T
C742        N744   1.157       .  T
