geometry optimzed in LAMMPS
_audit_creation_date              2020-11-30 
_audit_creation_method            'lammps2cif' 
_symmetry_space_group_name_H-M    'P1' 
_symmetry_Int_Tables_number       1 
_symmetry_cell_setting            triclinic 
loop_ 
_symmetry_equiv_pos_as_xyz 
  x,y,z 
_cell_length_a                    27.66478396 
_cell_length_b                    30.30470262165721 
_cell_length_c                    43.03837748951311 
_cell_angle_alpha                 90.03179316010238 
_cell_angle_beta                  89.93600255482535 
_cell_angle_gamma                 90.00872855555417 
loop_ 
_atom_site_label 
_atom_site_type_symbol 
_atom_site_fract_x 
_atom_site_fract_y 
_atom_site_fract_z 
_atom_site_charge 
O1          O  0.97112272  0.93632921  0.03494086    -0.88400
C2          C  0.91408988  0.05950462  0.02346942     0.87700
Mg3        Mg  0.04512123  0.92605444  0.04886316     1.58100
O4          O  0.93834642  0.00261389  0.95398406    -0.88100
O5          O  0.92190044  0.91925542  0.99689103    -0.75400
C6          C  0.17248644  0.05952528  0.95731158     0.92700
O7          O  0.99715366  0.02486655  0.07253722    -0.75200
O8          O  0.17388367  0.04437240  0.98490925    -0.82800
Mg9        Mg  0.93004598  0.98231714  0.06286853     1.58000
C10         C  0.00778877  0.06589115  0.88076074     0.92600
O11         O  0.85946021  0.94299071  0.05850570    -0.81000
H12         H  0.92903481  0.94929869  0.92729170    -0.06400
C13         C  0.04110954  0.08961974  0.98203598     0.87600
O14         O  0.06882279  0.91486527  0.99839967    -0.75500
O15         O  0.91383328  0.01883012  0.02133924    -0.88300
O16         O  0.97121714  0.07006397  0.89857980    -0.81100
C17         C  0.83374881  0.07209235  0.94795760     0.92700
C18         C  0.82182782  0.94003234  0.04153375     0.92600
Mg19       Mg  0.06522050  0.01494320  0.93646422     1.58000
O20         O  0.13580079  0.05444186  0.93975824    -0.81000
O21         O  0.99802318  0.97195333  0.92828451    -0.75300
O22         O  0.83139694  0.04161338  0.96844676    -0.81100
O23         O  0.94694869  0.94461175  0.10753104    -0.82800
O24         O  0.16471269  0.95993943  0.03154213    -0.81100
C25         C  0.95371890  0.97406958  0.93595403     0.87000
O26         O  0.08194158  0.98019978  0.97849434    -0.88300
O27         O  0.02442081  0.06174695  0.96399046    -0.88400
O28         O  0.07126025  0.07955903  0.00310197    -0.75400
Mg29       Mg  0.88036201  0.98255171  0.98388452     1.58000
O30         O  0.87371041  0.08422580  0.93608562    -0.82800
H31         H  0.96511731  0.87479416  0.01860336    -0.06500
O32         O  0.05669193  0.99585892  0.04585474    -0.88100
H33         H  0.06617824  0.04740770  0.07420443    -0.06400
H34         H  0.09407682  0.92464597  0.95467912    -0.06500
C35         C  0.04143922  0.02327026  0.06476333     0.87000
C36         C  0.95309800  0.90868200  0.01725251     0.87600
C37         C  0.08271805  0.93954991  0.97631453     0.87600
H38         H  0.02824914  0.12324000  0.98059385    -0.06500
O39         O  0.92796109  0.08386710  0.00115487    -0.75500
Mg40       Mg  0.11413457  0.01752479  0.01597738     1.58000
H41         H  0.90345119  0.07469603  0.04516006    -0.06500
C42         C  0.98692406  0.92948196  0.11762723     0.92600
O43         O  0.12350883  0.91552681  0.06340175    -0.82800
C44         C  0.16321467  0.92916348  0.05182616     0.92700
O45         O  0.81960543  0.95753835  0.01469056    -0.82800
Mg46       Mg  0.95106383  0.07228578  0.95036414     1.58200
O47         O  0.02434768  0.92733206  0.10038810    -0.81100
O48         O  0.04763304  0.05025684  0.89072032    -0.82800
C49         C  0.00402993  0.20694511  0.64407042     0.45400
H50         H  0.00526644  0.17036012  0.64243234    -0.03600
C51         C  0.00081168  0.29296329  0.64789796     0.45500
H52         H  0.99953942  0.32953693  0.64965958    -0.03600
C53         C  0.00083799  0.22418993  0.67755842    -0.17300
C54         C  0.04828267  0.23019367  0.63016194    -0.17000
C55         C  0.96046999  0.22770156  0.62758965    -0.17400
C56         C  0.99925463  0.26942233  0.67949537    -0.17400
C57         C  0.04649634  0.27527204  0.63215816    -0.17000
C58         C  0.95883222  0.27289692  0.62946336    -0.17300
O59         O  0.02306304  0.43293186  0.96829350    -0.88400
C60         C  0.08151725  0.55593860  0.97470520     0.87700
Mg61       Mg  0.94986875  0.42140884  0.95471837     1.58100
O62         O  0.05774428  0.50379317  0.04607905    -0.88100
O63         O  0.07305688  0.41764757  0.00618831    -0.75400
C64         C  0.82336578  0.56110233  0.04104146     0.92700
O65         O  0.99738742  0.51882240  0.92786641    -0.75200
O66         O  0.82010754  0.54182444  0.01482405    -0.82800
Mg67       Mg  0.06386839  0.47608549  0.93878663     1.58000
C68         C  0.98797742  0.57378151  0.11556234     0.92600
O69         O  0.13241211  0.43522455  0.94417945    -0.81000
H70         H  0.06649167  0.45300093  0.07515458    -0.06400
C71         C  0.95423829  0.58917439  0.01503514     0.87600
O72         O  0.92687135  0.41316754  0.00557528    -0.75500
O73         O  0.08127642  0.51554635  0.97854307    -0.88300
O74         O  0.02613565  0.57439874  0.09895885    -0.81100
C75         C  0.16253191  0.57235726  0.04986100     0.92700
C76         C  0.17110280  0.43426335  0.96012895     0.92600
Mg77       Mg  0.93084545  0.51867884  0.06250086     1.58000
O78         O  0.86158481  0.55888725  0.05743599    -0.81000
O79         O  0.99767407  0.47598857  0.07296024    -0.75300
O80         O  0.16521483  0.54020115  0.03070557    -0.81100
O81         O  0.04658639  0.43514544  0.89627475    -0.82800
O82         O  0.83017245  0.45650262  0.97011469    -0.81100
C83         C  0.04205193  0.47704388  0.06530404     0.87000
O84         O  0.91333879  0.47995407  0.02262451    -0.88300
O85         O  0.97186270  0.56219402  0.03331771    -0.88400
O86         O  0.92273150  0.57800210  0.99508693    -0.75400
Mg87       Mg  0.11525295  0.48140698  0.01669281     1.58000
O88         O  0.12218984  0.58603133  0.06025874    -0.82800
H89         H  0.02853361  0.37241258  0.98642506    -0.06500
O90         O  0.93770685  0.49143735  0.95524003    -0.88100
H91         H  0.92846492  0.54152069  0.92563011    -0.06400
H92         H  0.90156858  0.42656541  0.04882322    -0.06500
C93         C  0.95308970  0.51778759  0.93565753     0.87000
C94         C  0.04110462  0.40619105  0.98659381     0.87600
C95         C  0.91276751  0.43959692  0.02656840     0.87600
H96         H  0.96697340  0.62289630  0.01545187    -0.06500
O97         O  0.06780249  0.58220144  0.99592961    -0.75500
Mg98       Mg  0.88023723  0.51464551  0.98431328     1.58000
H99         H  0.09227706  0.56915987  0.95241903    -0.06500
C100        C  0.00687060  0.42003224  0.88593434     0.92600
O101        O  0.87301964  0.40940854  0.94141662    -0.82800
C102        C  0.83277133  0.42395444  0.95132084     0.92700
O103        O  0.17511021  0.45511140  0.98569468    -0.82800
Mg104      Mg  0.04512748  0.57361227  0.04687687     1.58200
O105        O  0.96867364  0.41959387  0.90249728    -0.81100
O106        O  0.94814925  0.55897735  0.10519808    -0.82800
C107        C  0.99867081  0.79168682  0.35466071     0.45400
H108        H  0.99770055  0.82833037  0.35547646    -0.03600
C109        C  0.00125706  0.70553227  0.35217510     0.45500
H110        H  0.00235795  0.66889594  0.35110159    -0.03600
C111        C  0.99854805  0.77299526  0.32147859    -0.17300
C112        C  0.04370548  0.77144363  0.36980610    -0.17000
C113        C  0.95562761  0.76913838  0.37064484    -0.17400
C114        C  0.99975819  0.72780426  0.32027527    -0.17400
C115        C  0.04478308  0.72619566  0.36860664    -0.17000
C116        C  0.95726791  0.72388890  0.36942623    -0.17300
O117        O  0.52736928  0.93754482  0.46557881    -0.88400
C118        C  0.58724905  0.05989771  0.47327716     0.87700
Mg119      Mg  0.45368483  0.92670340  0.45222044     1.58100
O120        O  0.56201585  0.00647432  0.54402336    -0.88100
O121        O  0.57753433  0.92082659  0.50307483    -0.75400
C122        C  0.32858432  0.06758627  0.53914872     0.92700
O123        O  0.50187055  0.02457814  0.42647561    -0.75200
O124        O  0.32458814  0.04766551  0.51318954    -0.82800
Mg125      Mg  0.56838801  0.98142879  0.43640811     1.58000
C126        C  0.49238148  0.07760673  0.61394084     0.92600
O127        O  0.63767944  0.94041887  0.44079118    -0.81000
H128        H  0.56963534  0.95474501  0.57241736    -0.06400
C129        C  0.45961712  0.09344328  0.51341241     0.87600
O130        O  0.43048837  0.91802666  0.50301627    -0.74300
O131        O  0.58595800  0.01944991  0.47661016    -0.88300
O132        O  0.53068702  0.07791815  0.59748632    -0.81100
C133        C  0.66746700  0.07392033  0.54816509     0.92700
C134        C  0.67628941  0.93892946  0.45687824     0.92600
Mg135      Mg  0.43511782  0.02287565  0.56051069     1.58000
O136        O  0.36680267  0.06475681  0.55551184    -0.81000
O137        O  0.50129843  0.97899319  0.57055201    -0.75300
O138        O  0.66918076  0.04313006  0.52794471    -0.81100
O139        O  0.55044616  0.94237796  0.39324244    -0.82800
O140        O  0.33343683  0.96192200  0.46779515    -0.81100
C141        C  0.54571076  0.97946447  0.56287657     0.87000
O142        O  0.41698322  0.98463258  0.52048031    -0.88300
O143        O  0.47704449  0.06616005  0.53155894    -0.88400
O144        O  0.42768454  0.08275822  0.49358737    -0.75400
Mg145      Mg  0.61964176  0.98440372  0.51420535     1.58000
O146        O  0.62785266  0.08729753  0.55983716    -0.82800
H147        H  0.53289572  0.87635281  0.48256449    -0.06500
O148        O  0.44166496  0.99672936  0.45320909    -0.88100
H149        H  0.43319637  0.04787868  0.42443211    -0.06400
H150        H  0.40488035  0.93090283  0.54627058    -0.06500
C151        C  0.45750115  0.02358723  0.43411455     0.87000
C152        C  0.54549452  0.91010742  0.48333153     0.87600
C153        C  0.41627322  0.94421415  0.52413935     0.87600
H154        H  0.47275791  0.12703352  0.51390520    -0.06500
O155        O  0.57408321  0.08585766  0.49482018    -0.75500
Mg156      Mg  0.38426122  0.01991178  0.48241166     1.58000
H157        H  0.59857749  0.07346658  0.45121240    -0.06500
C158        C  0.51060737  0.92711571  0.38320734     0.92600
O159        O  0.37626673  0.91513911  0.43877879    -0.82800
C160        C  0.33596071  0.92951454  0.44881572     0.92700
O161        O  0.67984204  0.95871896  0.48289398    -0.82800
Mg162      Mg  0.55052792  0.07658899  0.54558149     1.58200
O163        O  0.47300937  0.92552534  0.40029432    -0.81100
O164        O  0.45276106  0.06245211  0.60351289    -0.82800
C165        C  0.49898983  0.70595036  0.14613408     0.45400
H166        H  0.49819535  0.66928433  0.14602318    -0.03600
C167        C  0.50105394  0.79216971  0.14684026     0.45500
H168        H  0.50198935  0.82882978  0.14724849    -0.03600
C169        C  0.49986434  0.72594310  0.17896232    -0.17300
C170        C  0.54305325  0.72586843  0.12969305    -0.17000
C171        C  0.45522888  0.72761560  0.13039598    -0.17400
C172        C  0.50094211  0.77109568  0.17924449    -0.17400
C173        C  0.54406019  0.77104060  0.12988816    -0.17000
C174        C  0.45629668  0.77299640  0.13076768    -0.17300
O175        O  0.47322235  0.44286720  0.53835271    -0.88400
C176        C  0.41820776  0.56628266  0.52913465     0.87700
Mg177      Mg  0.54685457  0.43139946  0.55138265     1.58100
O178        O  0.44126028  0.51107571  0.45909074    -0.88100
O179        O  0.42362789  0.42623934  0.50052909    -0.75400
C180        C  0.67799291  0.56176313  0.46055863     0.92700
O181        O  0.50159075  0.53035888  0.57588891    -0.75200
O182        O  0.67939621  0.54525187  0.48773435    -0.82800
Mg183      Mg  0.43350363  0.48861350  0.56689676     1.58000
C184        C  0.51091103  0.57844742  0.38679218     0.92600
O185        O  0.36246003  0.44961195  0.56309265    -0.81000
H186        H  0.43015183  0.46001305  0.43056645    -0.06400
C187        C  0.54716746  0.59643870  0.48704061     0.87600
O188        O  0.56858684  0.42031358  0.50047064    -0.75500
O189        O  0.41693327  0.52571374  0.52630210    -0.88300
O190        O  0.47337764  0.58038909  0.40398381    -0.81100
C191        C  0.33746648  0.58000798  0.45461297     0.92700
C192        C  0.32439508  0.44706037  0.54648828     0.92600
Mg193      Mg  0.56779624  0.52317768  0.44043981     1.58000
O194        O  0.64002978  0.56010642  0.44381822    -0.81000
O195        O  0.49944053  0.48198708  0.43131438    -0.75300
O196        O  0.33489499  0.54946823  0.47492635    -0.81100
O197        O  0.45084014  0.45068630  0.61058653    -0.82800
O198        O  0.66715811  0.46196819  0.53328443    -0.81100
C199        C  0.45550133  0.48377301  0.43981116     0.87000
O200        O  0.58423167  0.48565034  0.48126330    -0.88300
O201        O  0.52865645  0.56922406  0.46926652    -0.88400
O202        O  0.57831374  0.58521994  0.50719280    -0.75400
Mg203      Mg  0.38302405  0.49023959  0.48885290     1.58000
O204        O  0.37739480  0.59268587  0.44300473    -0.82800
H205        H  0.46665896  0.38141048  0.52196953    -0.06500
O206        O  0.56035514  0.50092759  0.54864190    -0.88100
H207        H  0.57081732  0.55250327  0.57682830    -0.06400
H208        H  0.59298174  0.43033165  0.45655883    -0.06500
C209        C  0.54568873  0.52850747  0.56763966     0.87000
C210        C  0.45482023  0.41536222  0.52075082     0.87600
C211        C  0.58298035  0.44505990  0.47852845     0.87600
H212        H  0.53547388  0.63044392  0.48602915    -0.06500
O213        O  0.43290785  0.59112144  0.50733147    -0.75500
Mg214      Mg  0.61862057  0.52111194  0.51885928     1.58000
H215        H  0.40806834  0.58090256  0.55111797    -0.06500
C216        C  0.49097327  0.43615877  0.62068075     0.92600
O217        O  0.62445575  0.41845936  0.56466213    -0.82800
C218        C  0.66463972  0.43081304  0.55317124     0.92700
O219        O  0.32201221  0.46501139  0.51977262    -0.82800
Mg220      Mg  0.45483339  0.58071874  0.45634212     1.58200
O221        O  0.52826468  0.43370566  0.60334771    -0.81100
O222        O  0.55060312  0.56265503  0.39681610    -0.82800
C223        C  0.49538371  0.29300284  0.85490440     0.45400
H224        H  0.49518802  0.32965050  0.85604523    -0.03600
C225        C  0.49595400  0.20688396  0.85158268     0.45500
H226        H  0.49633449  0.17027301  0.85011625    -0.03600
C227        C  0.49616329  0.27506081  0.82165911    -0.17300
C228        C  0.53943609  0.27163643  0.87028839    -0.17000
C229        C  0.45133645  0.27113160  0.86999002    -0.17400
C230        C  0.49638081  0.22992140  0.81984067    -0.17400
C231        C  0.53965394  0.22630261  0.86870101    -0.17000
C232        C  0.45179942  0.22585511  0.86860726    -0.17300
C233        C  0.58094276  0.35724355  0.70236203    -0.17900
C234        C  0.58155398  0.33412111  0.73044468    -0.20000
C235        C  0.53994492  0.33206004  0.74903365     0.20600
C236        C  0.49751569  0.35418959  0.73959365    -0.02900
C237        C  0.49689663  0.37745952  0.71124088    -0.06000
C238        C  0.53868474  0.37858901  0.69243151     0.20900
C239        C  0.45411974  0.39853635  0.70134032     0.19100
C240        C  0.41275709  0.39711346  0.72023696    -0.17500
C241        C  0.41340239  0.37416249  0.74842315    -0.19700
C242        C  0.45538102  0.35219251  0.75812231     0.20600
C243        C  0.45568777  0.32730484  0.78557583    -0.32700
C244        C  0.49733608  0.30419179  0.79433627     0.01300
C245        C  0.53963151  0.30744476  0.77653693    -0.24100
C246        C  0.53708215  0.39979308  0.66355821    -0.28600
C247        C  0.49403611  0.41936452  0.65291829     0.06900
C248        C  0.45300122  0.41945536  0.67229610    -0.27300
H249        H  0.61330775  0.35782695  0.68815680     0.11600
H250        H  0.61436306  0.31730518  0.73740937     0.12800
H251        H  0.37965943  0.41319051  0.71298701     0.11800
H252        H  0.38082875  0.37300501  0.76240186     0.11100
H253        H  0.42326845  0.32473535  0.79965465     0.16500
H254        H  0.57195649  0.29017543  0.78390517     0.12400
H255        H  0.56898098  0.39959160  0.64889980     0.15200
H256        H  0.41967909  0.43452494  0.66439037     0.15000
C257        C  0.59258653  0.63100749  0.29121819    -0.17900
C258        C  0.59101338  0.65130505  0.26203273    -0.20000
C259        C  0.54671450  0.66435812  0.24912852     0.20600
C260        C  0.50348981  0.65689463  0.26582695    -0.02900
C261        C  0.50511651  0.63651888  0.29536342    -0.06000
C262        C  0.54989186  0.62345441  0.30806545     0.20900
C263        C  0.46203985  0.62963844  0.31227777     0.19100
C264        C  0.41772887  0.64298933  0.29944714    -0.17500
C265        C  0.41608915  0.66309840  0.27016985    -0.19700
C266        C  0.45872755  0.67028945  0.25319801     0.20600
C267        C  0.45758238  0.69131249  0.22410727    -0.32700
C268        C  0.50059314  0.69918390  0.20768158     0.01300
C269        C  0.54493571  0.68543296  0.22010100    -0.24100
C270        C  0.55131761  0.60350963  0.33751077    -0.28600
C271        C  0.50861007  0.59676438  0.35473001     0.06900
C272        C  0.46406329  0.60994652  0.34182230    -0.27300
H273        H  0.62728765  0.62136183  0.30068237     0.11600
H274        H  0.62451460  0.65694269  0.24958662     0.12800
H275        H  0.38430262  0.63802454  0.31212185     0.11800
H276        H  0.38145648  0.67326797  0.26087211     0.11100
H277        H  0.42350555  0.70255855  0.21452031     0.16500
H278        H  0.57805288  0.69222231  0.20747467     0.12400
H279        H  0.58589906  0.59403149  0.34726409     0.15200
H280        H  0.43090869  0.60518235  0.35484720     0.15000
C281        C  0.41677222  0.83576759  0.26934488    -0.17900
C282        C  0.41810147  0.85794474  0.29784646    -0.20000
C283        C  0.46215833  0.87316235  0.30996277     0.20600
C284        C  0.50528193  0.86626403  0.29311100    -0.02900
C285        C  0.50398431  0.84370198  0.26444941    -0.06000
C286        C  0.45948859  0.82834162  0.25254717     0.20900
C287        C  0.54730883  0.83579906  0.24799676     0.19100
C288        C  0.59134888  0.85098565  0.26007779    -0.17500
C289        C  0.59257932  0.87362349  0.28838037    -0.19700
C290        C  0.54981909  0.88120604  0.30513351     0.20600
C291        C  0.55099650  0.90258686  0.33401296    -0.32700
C292        C  0.50832015  0.90873186  0.35132774     0.01300
C293        C  0.46395317  0.89433431  0.33891874    -0.24100
C294        C  0.45867208  0.80536356  0.22427000    -0.28600
C295        C  0.50174821  0.79734604  0.20804631     0.06900
C296        C  0.54587877  0.81228084  0.21999502    -0.27300
H297        H  0.38237120  0.82411536  0.26055189     0.11600
H298        H  0.38468397  0.86292164  0.31053219     0.12800
H299        H  0.62487930  0.84518089  0.24769553     0.11800
H300        H  0.62706791  0.88480345  0.29733291     0.11100
H301        H  0.58542322  0.91324875  0.34339851     0.16500
H302        H  0.43084235  0.89883964  0.35204072     0.12400
H303        H  0.42479054  0.79299564  0.21510678     0.15200
H304        H  0.57912201  0.80461791  0.20792153     0.15000
C305        C  0.40727880  0.13331452  0.70713904    -0.17900
C306        C  0.40777607  0.15497888  0.73584269    -0.20000
C307        C  0.45151949  0.16946796  0.74876488     0.20600
C308        C  0.49523141  0.16230353  0.73253163    -0.02900
C309        C  0.49469257  0.14058700  0.70351535    -0.06000
C310        C  0.45051475  0.12585072  0.69085813     0.20900
C311        C  0.53830645  0.13375785  0.68716412     0.19100
C312        C  0.58199861  0.14884316  0.69989215    -0.17500
C313        C  0.58257923  0.17017314  0.72872898    -0.19700
C314        C  0.53946357  0.17689557  0.74526446     0.20600
C315        C  0.53969369  0.19807895  0.77423464    -0.32700
C316        C  0.49625571  0.20547010  0.79023311     0.01300
C317        C  0.45234842  0.19121498  0.77752463    -0.24100
C318        C  0.45025319  0.10422716  0.66203997    -0.28600
C319        C  0.49354484  0.09737850  0.64547451     0.06900
C320        C  0.53744923  0.11225638  0.65828842    -0.27300
H321        H  0.37303129  0.12240753  0.69765379     0.11600
H322        H  0.37393450  0.16034220  0.74796740     0.12800
H323        H  0.61576973  0.14405756  0.68756276     0.11800
H324        H  0.61676768  0.18142326  0.73810401     0.11100
H325        H  0.57347719  0.20930368  0.78421129     0.16500
H326        H  0.41891244  0.19755852  0.78989990     0.12400
H327        H  0.41612642  0.09346467  0.65226732     0.15200
H328        H  0.57098977  0.10749592  0.64567414     0.15000
C329        C  0.17409806  0.64322803  0.47009714    -0.17900
C330        C  0.13288743  0.66365300  0.45787903    -0.20000
C331        C  0.12865661  0.67082056  0.42577436     0.20600
C332        C  0.16605922  0.65682805  0.40571700    -0.02900
C333        C  0.20801166  0.63714206  0.41809038    -0.06000
C334        C  0.21205782  0.63020199  0.45045440     0.20900
C335        C  0.24616491  0.62495274  0.39807913     0.19100
C336        C  0.24154659  0.63114596  0.36592245    -0.17500
C337        C  0.19963644  0.64992878  0.35361461    -0.19700
C338        C  0.16197103  0.66326504  0.37331504     0.20600
C339        C  0.12084767  0.68396600  0.36126381    -0.32700
C340        C  0.08470045  0.69954409  0.38123397     0.01300
C341        C  0.08827653  0.69256077  0.41336385    -0.24100
C342        C  0.25419206  0.61079370  0.46252294    -0.28600
C343        C  0.29270413  0.59985875  0.44265662     0.06900
C344        C  0.28844874  0.60703219  0.41055904    -0.27300
H345        H  0.17656714  0.63816885  0.49496509     0.11600
H346        H  0.10441719  0.67405402  0.47356214     0.12800
H347        H  0.27048178  0.62166018  0.35029477     0.11800
H348        H  0.19699538  0.65466977  0.32872062     0.11100
H349        H  0.11791619  0.68983353  0.33652184     0.16500
H350        H  0.06001878  0.70474026  0.42860021     0.12400
H351        H  0.25755348  0.60515332  0.48730288     0.15200
H352        H  0.31793972  0.59791718  0.39520962     0.15000
C353        C  0.83222354  0.64245607  0.47370990    -0.17900
C354        C  0.87135336  0.66538450  0.46088320    -0.20000
C355        C  0.87701449  0.66811345  0.42854117     0.20600
C356        C  0.84340908  0.64690725  0.40888676    -0.02900
C357        C  0.80343879  0.62455861  0.42181398    -0.06000
C358        C  0.79775769  0.62239855  0.45439412     0.20900
C359        C  0.76872109  0.60510734  0.40211454     0.19100
C360        C  0.77501651  0.60688173  0.36977445    -0.17500
C361        C  0.81506797  0.62836861  0.35696727    -0.19700
C362        C  0.84914843  0.64884678  0.37628974     0.20600
C363        C  0.88813182  0.67224725  0.36361283    -0.32700
C364        C  0.92011734  0.69500382  0.38308532     0.01300
C365        C  0.91497220  0.69248923  0.41544621    -0.24100
C366        C  0.75727492  0.60093117  0.46703397    -0.28600
C367        C  0.72176698  0.58274639  0.44747867     0.06900
C368        C  0.72796476  0.58473836  0.41506139    -0.27300
H369        H  0.82846875  0.64105286  0.49875142     0.11600
H370        H  0.89698589  0.68129554  0.47626281     0.12800
H371        H  0.74875061  0.59191535  0.35436595     0.11800
H372        H  0.81895374  0.62962014  0.33192538     0.11100
H373        H  0.89239769  0.67453357  0.33862447     0.16500
H374        H  0.94012240  0.71008184  0.43027689     0.12400
H375        H  0.75270393  0.59946141  0.49203388     0.15200
H376        H  0.70107137  0.57022577  0.39985678     0.15000
C377        C  0.85140795  0.90476375  0.45492201    -0.17900
C378        C  0.89058332  0.88141159  0.44252037    -0.20000
C379        C  0.88335068  0.85003877  0.41899313     0.20600
C380        C  0.83617537  0.84218135  0.40776752    -0.02900
C381        C  0.79675404  0.86604842  0.42005372    -0.06000
C382        C  0.80437608  0.89733689  0.44386569     0.20900
C383        C  0.74976355  0.85861226  0.40847327     0.19100
C384        C  0.74248685  0.82720634  0.38495533    -0.17500
C385        C  0.78147352  0.80326002  0.37298540    -0.19700
C386        C  0.82838226  0.81056747  0.38419665     0.20600
C387        C  0.86765500  0.78691865  0.37220429    -0.32700
C388        C  0.91453760  0.79438654  0.38348737     0.01300
C389        C  0.92235613  0.82628887  0.40653767    -0.24100
C390        C  0.76487636  0.92070171  0.45612601    -0.28600
C391        C  0.71795316  0.91367731  0.44453346     0.06900
C392        C  0.71083427  0.88266674  0.42060255    -0.27300
H393        H  0.85791865  0.92872491  0.47313564     0.11600
H394        H  0.92654518  0.88779869  0.45140259     0.12800
H395        H  0.70659459  0.82109456  0.37585781     0.11800
H396        H  0.77495453  0.77907836  0.35490930     0.11100
H397        H  0.86192930  0.76303122  0.35381650     0.16500
H398        H  0.95864693  0.83207501  0.41503763     0.12400
H399        H  0.77076124  0.94476503  0.47437941     0.15200
H400        H  0.67481424  0.87689528  0.41156061     0.15000
C401        C  0.11843690  0.87640431  0.44393583    -0.17900
C402        C  0.15944854  0.89848753  0.45509523    -0.20000
C403        C  0.20437163  0.89352176  0.44023754     0.20600
C404        C  0.20767719  0.86659240  0.41352189    -0.02900
C405        C  0.16628408  0.84470871  0.40209102    -0.06000
C406        C  0.12150226  0.84922798  0.41756469     0.20900
C407        C  0.16990195  0.81787103  0.37536432     0.19100
C408        C  0.21443054  0.81347393  0.36010790    -0.17500
C409        C  0.25543761  0.83482219  0.37156436    -0.19700
C410        C  0.25247671  0.86109095  0.39835658     0.20600
C411        C  0.29373334  0.88164557  0.41029717    -0.32700
C412        C  0.29117968  0.90824936  0.43708422     0.01300
C413        C  0.24612147  0.91455124  0.45172511    -0.24100
C414        C  0.08094821  0.82593408  0.40661031    -0.28600
C415        C  0.08500707  0.79838319  0.38050555     0.06900
C416        C  0.12913042  0.79531832  0.36460835    -0.27300
H417        H  0.08435973  0.88038170  0.45605066     0.11600
H418        H  0.15612813  0.91909367  0.47556694     0.12800
H419        H  0.21767258  0.79305557  0.33953052     0.11800
H420        H  0.28958792  0.83053905  0.35957692     0.11100
H421        H  0.32799962  0.87705953  0.39847373     0.16500
H422        H  0.24369067  0.93516948  0.47225544     0.12400
H423        H  0.04671308  0.82831819  0.41873069     0.15200
H424        H  0.13174195  0.77479616  0.34403046     0.15000
C425        C  0.23784243  0.32686428  0.88539301    -0.17900
C426        C  0.27722421  0.30474708  0.87228627    -0.20000
C427        C  0.32407159  0.31201679  0.88361606     0.20600
C428        C  0.33139899  0.34158539  0.90852580    -0.02900
C429        C  0.29162748  0.36360739  0.92191252    -0.06000
C430        C  0.24472386  0.35639230  0.91013042     0.20900
C431        C  0.29885225  0.39299488  0.94694535     0.19100
C432        C  0.34571635  0.40004583  0.95835213    -0.17500
C433        C  0.38521821  0.37837840  0.94496686    -0.19700
C434        C  0.37845944  0.34918273  0.92004254     0.20600
C435        C  0.41780390  0.32707022  0.90664079    -0.32700
C436        C  0.41041228  0.29700046  0.88237158     0.01300
C437        C  0.36370351  0.29001464  0.87064593    -0.24100
C438        C  0.20556789  0.37913455  0.92309123    -0.28600
C439        C  0.21250326  0.40885375  0.94784854     0.06900
C440        C  0.25919463  0.41520176  0.95989261    -0.27300
H441        H  0.20200181  0.32094011  0.87614379     0.11600
H442        H  0.27106612  0.28203381  0.85324091     0.12800
H443        H  0.35185384  0.42249687  0.97754881     0.11800
H444        H  0.42107376  0.38442220  0.95413559     0.11100
H445        H  0.45391918  0.33217971  0.91563416     0.16500
H446        H  0.35832991  0.26703553  0.85163080     0.12400
H447        H  0.16964734  0.37379763  0.91375116     0.15200
H448        H  0.26486042  0.43814778  0.97887462     0.15000
C449        C  0.71194464  0.30699158  0.86325438    -0.17900
C450        C  0.75325817  0.32689713  0.87543214    -0.20000
C451        C  0.74979747  0.35504536  0.90122322     0.20600
C452        C  0.70430126  0.36393455  0.91462252    -0.02900
C453        C  0.66265601  0.34333280  0.90260059    -0.06000
C454        C  0.66671458  0.31457800  0.87692866     0.20900
C455        C  0.61713083  0.35101097  0.91646299     0.19100
C456        C  0.61353262  0.38056448  0.94149093    -0.17500
C457        C  0.65486227  0.40148992  0.95318561    -0.19700
C458        C  0.70051757  0.39294067  0.94019962     0.20600
C459        C  0.74248248  0.41259435  0.95236990    -0.32700
C460        C  0.78808839  0.40304817  0.93945307     0.01300
C461        C  0.79119754  0.37431809  0.91382973    -0.24100
C462        C  0.62564396  0.29311965  0.86576383    -0.28600
C463        C  0.58106414  0.29809876  0.88081828     0.06900
C464        C  0.57641500  0.32813331  0.90546332    -0.27300
H465        H  0.71548068  0.28501057  0.84350921     0.11600
H466        H  0.78798449  0.32006505  0.86479247     0.12800
H467        H  0.57883302  0.38712751  0.95223870     0.11800
H468        H  0.65120337  0.42389780  0.97267221     0.11100
H469        H  0.73968335  0.43496563  0.97195008     0.16500
H470        H  0.82597549  0.36722556  0.90331379     0.12400
H471        H  0.62843466  0.27195834  0.84556526     0.15200
H472        H  0.54158704  0.33269380  0.91651980     0.15000
C473        C  0.38136627  0.61974863  0.05825401    -0.17900
C474        C  0.34017474  0.59852943  0.04656229    -0.20000
C475        C  0.29453717  0.60618204  0.05987603     0.20600
C476        C  0.29060339  0.63510420  0.08549928    -0.02900
C477        C  0.33206008  0.65637662  0.09732481    -0.06000
C478        C  0.37765582  0.64897116  0.08348158     0.20900
C479        C  0.32772582  0.68544857  0.12282835     0.19100
C480        C  0.28247198  0.69251174  0.13659518    -0.17500
C481        C  0.24146726  0.67154433  0.12485306    -0.19700
C482        C  0.24514438  0.64313362  0.09921091     0.20600
C483        C  0.20396731  0.62278270  0.08706458    -0.32700
C484        C  0.20715632  0.59405339  0.06142202     0.01300
C485        C  0.25275235  0.58564240  0.04803890    -0.24100
C486        C  0.41836791  0.67158128  0.09482614    -0.28600
C487        C  0.41350196  0.70166490  0.11945208     0.06900
C488        C  0.36855106  0.70754803  0.13384729    -0.27300
H489        H  0.41607012  0.61358546  0.04739213     0.11600
H490        H  0.34396965  0.57635583  0.02695489     0.12800
H491        H  0.27870688  0.71465598  0.15623014     0.11800
H492        H  0.20677141  0.67779618  0.13570531     0.11100
H493        H  0.16926601  0.62915791  0.09790334     0.16500
H494        H  0.25568889  0.56339505  0.02839972     0.12400
H495        H  0.45342952  0.66675626  0.08408710     0.15200
H496        H  0.36539322  0.72975011  0.15350469     0.15000
C497        C  0.71032085  0.67248289  0.13736069    -0.17900
C498        C  0.74988156  0.65027829  0.12456235    -0.20000
C499        C  0.74599553  0.62954543  0.09550454     0.20600
C500        C  0.70185704  0.63099731  0.07917704    -0.02900
C501        C  0.66185521  0.65323195  0.09214849    -0.06000
C502        C  0.66626000  0.67420393  0.12132688     0.20900
C503        C  0.61759278  0.65472793  0.07584964     0.19100
C504        C  0.61382631  0.63407141  0.04676903    -0.17500
C505        C  0.65354555  0.61204539  0.03389866    -0.19700
C506        C  0.69768028  0.61027821  0.04991040     0.20600
C507        C  0.73759913  0.58797094  0.03727059    -0.32700
C508        C  0.78161535  0.58603404  0.05357360     0.01300
C509        C  0.78546779  0.60720733  0.08260712    -0.24100
C510        C  0.62668988  0.69698815  0.13374196    -0.28600
C511        C  0.58290432  0.69879688  0.11744668     0.06900
C512        C  0.57816223  0.67735302  0.08877044    -0.27300
H513        H  0.71421322  0.68840187  0.15977146     0.11600
H514        H  0.78356638  0.64936985  0.13737947     0.12800
H515        H  0.58016970  0.63503645  0.03393859     0.11800
H516        H  0.64972461  0.59634548  0.01141043     0.11100
H517        H  0.73421428  0.57180137  0.01490645     0.16500
H518        H  0.81917072  0.60607118  0.09541520     0.12400
H519        H  0.62996275  0.71391648  0.15585575     0.15200
H520        H  0.54427323  0.67939179  0.07623804     0.15000
C521        C  0.90660885  0.66427969  0.23357191    -0.17900
C522        C  0.90497374  0.64172109  0.20522407    -0.20000
C523        C  0.94776526  0.62719846  0.19094303     0.20600
C524        C  0.99263893  0.63513664  0.20545920    -0.02900
C525        C  0.99424432  0.65731018  0.23426665    -0.06000
C526        C  0.95101869  0.67226317  0.24825046     0.20900
C527        C  0.03913478  0.66488491  0.24891848     0.19100
C528        C  0.08191810  0.65064925  0.23455895    -0.17500
C529        C  0.08036509  0.62925961  0.20578022    -0.19700
C530        C  0.03595858  0.62137641  0.19104634     0.20600
C531        C  0.03417269  0.60051278  0.16197485    -0.32700
C532        C  0.98958868  0.59265407  0.14727354     0.01300
C533        C  0.94651020  0.60558326  0.16214765    -0.24100
C534        C  0.95311509  0.69517575  0.27653295    -0.28600
C535        C  0.99769716  0.70241220  0.29112869     0.06900
C536        C  0.04045832  0.68697249  0.27750069    -0.27300
H537        H  0.87313259  0.67549227  0.24401664     0.11600
H538        H  0.87024755  0.63598943  0.19431570     0.12800
H539        H  0.11663008  0.65636410  0.24548364     0.11800
H540        H  0.11393573  0.61893056  0.19501421     0.11100
H541        H  0.06753970  0.59067931  0.15069116     0.16500
H542        H  0.91200631  0.60011366  0.15085780     0.12400
H543        H  0.92027074  0.70757620  0.28718246     0.15200
H544        H  0.07475555  0.69323760  0.28877129     0.15000
C545        C  0.24321584  0.37103449  0.63358638    -0.17900
C546        C  0.20379853  0.34805310  0.64588789    -0.20000
C547        C  0.16346108  0.33872426  0.62731797     0.20600
C548        C  0.16277406  0.35262164  0.59598970    -0.02900
C549        C  0.20242799  0.37613838  0.58364572    -0.06000
C550        C  0.24281985  0.38525045  0.60255186     0.20900
C551        C  0.20174740  0.39032027  0.55240298     0.19100
C552        C  0.16148999  0.38057009  0.53376517    -0.17500
C553        C  0.12236300  0.35683715  0.54590474    -0.19700
C554        C  0.12266102  0.34271799  0.57695231     0.20600
C555        C  0.08397915  0.31833032  0.58922246    -0.32700
C556        C  0.08493029  0.30431647  0.62024948     0.01300
C557        C  0.12411741  0.31517236  0.63935820    -0.24100
C558        C  0.28223381  0.40832346  0.59014591    -0.28600
C559        C  0.28198938  0.42282336  0.55906082     0.06900
C560        C  0.24140596  0.41378641  0.54035269    -0.27300
H561        H  0.27404134  0.37772000  0.64836281     0.11600
H562        H  0.20496917  0.33736926  0.66990846     0.12800
H563        H  0.16036416  0.39111617  0.50972469     0.11800
H564        H  0.09187849  0.34947292  0.53099104     0.11100
H565        H  0.05352687  0.30955373  0.57462637     0.16500
H566        H  0.12449219  0.30407551  0.66330935     0.12400
H567        H  0.31312905  0.41512726  0.60485923     0.15200
H568        H  0.24082800  0.42463220  0.51635800     0.15000
C569        C  0.83933478  0.39417560  0.54221134    -0.17900
C570        C  0.88074119  0.37244135  0.55312301    -0.20000
C571        C  0.87910045  0.34764910  0.58068042     0.20600
C572        C  0.83534055  0.34515147  0.59753626    -0.02900
C573        C  0.79361096  0.36691469  0.58648002    -0.06000
C574        C  0.79548226  0.39145627  0.55861929     0.20900
C575        C  0.74991755  0.36378434  0.60325271     0.19100
C576        C  0.74833939  0.33966654  0.63104565    -0.17500
C577        C  0.78958981  0.31821044  0.64200301    -0.19700
C578        C  0.83307901  0.32053449  0.62535430     0.20600
C579        C  0.87413670  0.29817406  0.63588485    -0.32700
C580        C  0.91724130  0.29946488  0.61882608     0.01300
C581        C  0.92002793  0.32475653  0.59153234    -0.24100
C582        C  0.75342348  0.41255122  0.54767524    -0.28600
C583        C  0.70949589  0.40888473  0.56412205     0.06900
C584        C  0.70835688  0.38457049  0.59195208    -0.27300
H585        H  0.84154360  0.41289746  0.52081486     0.11600
H586        H  0.91399053  0.37480958  0.53989808     0.12800
H587        H  0.71505959  0.33715316  0.64422859     0.11800
H588        H  0.78737532  0.29947449  0.66339531     0.11100
H589        H  0.87251979  0.27917143  0.65719821     0.16500
H590        H  0.95362421  0.32580029  0.57855263     0.12400
H591        H  0.75475278  0.43134908  0.52626850     0.15200
H592        H  0.67500569  0.38202317  0.60508453     0.15000
C593        C  0.80487746  0.15485117  0.64563164    -0.17900
C594        C  0.76321248  0.13436670  0.63434153    -0.20000
C595        C  0.75897573  0.12414555  0.60266706     0.20600
C596        C  0.79731369  0.13400209  0.58215891    -0.02900
C597        C  0.83904117  0.15539560  0.59345854    -0.06000
C598        C  0.84269605  0.16584119  0.62535166     0.20900
C599        C  0.87670855  0.16694882  0.57280956     0.19100
C600        C  0.87284780  0.15575184  0.54125337    -0.17500
C601        C  0.83181482  0.13373464  0.53014913    -0.19700
C602        C  0.79364687  0.12307585  0.55033301     0.20600
C603        C  0.75157828  0.10233585  0.53925574    -0.32700
C604        C  0.71272579  0.09391203  0.55947348     0.01300
C605        C  0.71679661  0.10471179  0.59110650    -0.24100
C606        C  0.88369276  0.18786144  0.63632466    -0.28600
C607        C  0.92020610  0.20083694  0.61571732     0.06900
C608        C  0.91706238  0.19009394  0.58408802    -0.27300
H609        H  0.80722980  0.16269068  0.67014231     0.11600
H610        H  0.73414341  0.12675010  0.65037156     0.12800
H611        H  0.90148172  0.16420446  0.52512162     0.11800
H612        H  0.82963343  0.12559925  0.50567574     0.11100
H613        H  0.74843110  0.09395787  0.51484765     0.16500
H614        H  0.68710457  0.09759529  0.60680906     0.12400
H615        H  0.88664553  0.19626095  0.66074672     0.15200
H616        H  0.94565727  0.20020329  0.56837849     0.15000
C617        C  0.15866367  0.11814250  0.53314199    -0.17900
C618        C  0.11905921  0.13999278  0.54629430    -0.20000
C619        C  0.12378818  0.16227171  0.57471505     0.20600
C620        C  0.16910844  0.16317840  0.58979680    -0.02900
C621        C  0.20901840  0.14112607  0.57653364    -0.06000
C622        C  0.20364363  0.11817293  0.54819613     0.20900
C623        C  0.25404782  0.14148370  0.59187551     0.19100
C624        C  0.25909780  0.16455948  0.61998082    -0.17500
C625        C  0.21957632  0.18646928  0.63310733    -0.19700
C626        C  0.17441097  0.18563354  0.61835117     0.20600
C627        C  0.13439137  0.20666599  0.63166143    -0.32700
C628        C  0.08944591  0.20598911  0.61665305     0.01300
C629        C  0.08407890  0.18362065  0.58836083    -0.24100
C630        C  0.24305706  0.09499719  0.53570237    -0.28600
C631        C  0.28773338  0.09418826  0.55128379     0.06900
C632        C  0.29302723  0.11812572  0.57915582    -0.27300
H633        H  0.15397329  0.10081569  0.51131809     0.11600
H634        H  0.08462725  0.13919450  0.53434721     0.12800
H635        H  0.29351658  0.16528042  0.63197165     0.11800
H636        H  0.22424110  0.20381563  0.65494231     0.11100
H637        H  0.13803985  0.22354124  0.65378071     0.16500
H638        H  0.04919187  0.18341237  0.57689110     0.12400
H639        H  0.23861344  0.07688513  0.51417086     0.15200
H640        H  0.32735638  0.11811670  0.59128621     0.15000
C641        C  0.91612726  0.36824139  0.79357623    -0.17900
C642        C  0.91514268  0.34751473  0.76449801    -0.20000
C643        C  0.95799073  0.33202493  0.75083576     0.20600
C644        C  0.00236514  0.33773756  0.76654725    -0.02900
C645        C  0.00342846  0.35922518  0.79565909    -0.06000
C646        C  0.96004506  0.37423377  0.80935789     0.20900
C647        C  0.04785707  0.36530213  0.81115999     0.19100
C648        C  0.09070841  0.34964834  0.79758174    -0.17500
C649        C  0.08959124  0.32786299  0.76894215    -0.19700
C650        C  0.04566430  0.32168915  0.75328527     0.20600
C651        C  0.04417565  0.29948905  0.72472618    -0.32700
C652        C  0.00018445  0.29386578  0.70910691     0.01300
C653        C  0.95730105  0.31057351  0.72191417    -0.24100
C654        C  0.96132215  0.39457750  0.83869428    -0.28600
C655        C  0.00554179  0.40080644  0.85426941     0.06900
C656        C  0.04865422  0.38641155  0.84014564    -0.27300
H657        H  0.88249379  0.37956995  0.80374092     0.11600
H658        H  0.88079441  0.34329460  0.75279475     0.12800
H659        H  0.12508496  0.35396379  0.80924156     0.11800
H660        H  0.12311822  0.31579683  0.75903682     0.11100
H661        H  0.07712327  0.28643383  0.71459025     0.16500
H662        H  0.92345519  0.30595536  0.70964895     0.12400
H663        H  0.92792472  0.40552261  0.84940735     0.15200
H664        H  0.08283249  0.39053946  0.85211754     0.15000
C665        C  0.73893368  0.13550738  0.86193001    -0.17900
C666        C  0.69671897  0.15497693  0.85050126    -0.20000
C667        C  0.65825198  0.16480279  0.87060038     0.20600
C668        C  0.66210824  0.15454664  0.90250770    -0.02900
C669        C  0.70427379  0.13385781  0.91390944    -0.06000
C670        C  0.74304984  0.12484132  0.89355562     0.20900
C671        C  0.70776398  0.12251312  0.94566236     0.19100
C672        C  0.66925148  0.13256202  0.96574349    -0.17500
C673        C  0.62798009  0.15416099  0.95459943    -0.19700
C674        C  0.62409949  0.16542377  0.92306364     0.20600
C675        C  0.58343427  0.18810667  0.91176654    -0.32700
C676        C  0.57989837  0.19865306  0.88010530     0.01300
C677        C  0.61647688  0.18562121  0.85949028    -0.24100
C678        C  0.78528739  0.10533893  0.90515780    -0.28600
C679        C  0.78888677  0.09333091  0.93664947     0.06900
C680        C  0.74978251  0.10159618  0.95674232    -0.27300
H681        H  0.76836459  0.12869241  0.84599975     0.11600
H682        H  0.69440945  0.16289896  0.82599832     0.12800
H683        H  0.67128294  0.12416961  0.99017322     0.11800
H684        H  0.59909131  0.16210496  0.97067373     0.11100
H685        H  0.55485147  0.19808879  0.92753176     0.16500
H686        H  0.61339051  0.19374907  0.83505341     0.12400
H687        H  0.81517335  0.09868146  0.88951073     0.15200
H688        H  0.75252988  0.09262367  0.98105576     0.15000
C689        C  0.32292934  0.11432515  0.85810723    -0.17900
C690        C  0.28274695  0.09225430  0.87028454    -0.20000
C691        C  0.26850493  0.09909729  0.90122566     0.20600
C692        C  0.29503180  0.12838152  0.92016199    -0.02900
C693        C  0.33521635  0.15106060  0.90776236    -0.06000
C694        C  0.34929843  0.14388201  0.87659326     0.20900
C695        C  0.36108249  0.18109586  0.92648573     0.19100
C696        C  0.34687029  0.18795259  0.95742434    -0.17500
C697        C  0.30744031  0.16501292  0.96984151    -0.19700
C698        C  0.28132295  0.13512291  0.95143975     0.20600
C699        C  0.24168771  0.11194381  0.96368793    -0.32700
C700        C  0.21484623  0.08315627  0.94478644     0.01300
C701        C  0.22820758  0.07717138  0.91355327    -0.24100
C702        C  0.38892388  0.16698301  0.86433009    -0.28600
C703        C  0.41376235  0.19781432  0.88262511     0.06900
C704        C  0.40026553  0.20418433  0.91379782    -0.27300
H705        H  0.33316241  0.10853417  0.83413894     0.11600
H706        H  0.26279657  0.06978286  0.85548834     0.12800
H707        H  0.36627747  0.21106523  0.97203053     0.11800
H708        H  0.29725891  0.17077363  0.99382035     0.11100
H709        H  0.23109854  0.11690545  0.98770275     0.16500
H710        H  0.20762979  0.05480934  0.89899456     0.12400
H711        H  0.39936949  0.16221461  0.84029087     0.15200
H712        H  0.41988519  0.22773806  0.92796258     0.15000
C713        C  0.91964282  0.17586776  0.77368667    -0.17900
C714        C  0.92059877  0.15337267  0.80202933    -0.20000
C715        C  0.96047325  0.12714691  0.81007946     0.20600
C716        C  0.99917653  0.12240601  0.78898067    -0.02900
C717        C  0.99806210  0.14490526  0.76020779    -0.06000
C718        C  0.95847656  0.17236205  0.75284800     0.20900
C719        C  0.03715446  0.14096028  0.73922890     0.19100
C720        C  0.07632541  0.11364917  0.74695750    -0.17500
C721        C  0.07761425  0.09164882  0.77560221    -0.19700
C722        C  0.03955113  0.09632453  0.79701498     0.20600
C723        C  0.04175437  0.07650879  0.82661196    -0.32700
C724        C  0.00386275  0.08226163  0.84819797     0.01300
C725        C  0.96287393  0.10677413  0.83926881    -0.24100
C726        C  0.95901530  0.19686992  0.72524206    -0.28600
C727        C  0.99870023  0.19457318  0.70495091     0.06900
C728        C  0.03693833  0.16554724  0.71148865    -0.27300
H729        H  0.88892429  0.19663831  0.76830646     0.11600
H730        H  0.89050190  0.15722382  0.81796163     0.12800
H731        H  0.10658009  0.11003655  0.73108287     0.11800
H732        H  0.10875203  0.07156398  0.78123063     0.11100
H733        H  0.07338984  0.05756614  0.83307369     0.16500
H734        H  0.93335228  0.11153183  0.85551985     0.12400
H735        H  0.92900460  0.21847087  0.71974450     0.15200
H736        H  0.06740615  0.16360178  0.69559956     0.15000
C737        C  0.68668362  0.86565439  0.14317230    -0.17900
C738        C  0.72589360  0.88881050  0.13084206    -0.20000
C739        C  0.73324413  0.89046107  0.09861507     0.20600
C740        C  0.70094066  0.86845264  0.07853283    -0.02900
C741        C  0.66169465  0.84456298  0.09101243    -0.06000
C742        C  0.65443455  0.84352442  0.12347694     0.20900
C743        C  0.62980865  0.82171029  0.07108070     0.19100
C744        C  0.63730982  0.82330587  0.03882865    -0.17500
C745        C  0.67587677  0.84756834  0.02640987    -0.19700
C746        C  0.70789238  0.87026918  0.04605205     0.20600
C747        C  0.74689171  0.89451426  0.03389295    -0.32700
C748        C  0.77956968  0.91593453  0.05390138     0.01300
C749        C  0.77247152  0.91365675  0.08618796    -0.24100
C750        C  0.61516011  0.82024847  0.13573613    -0.28600
C751        C  0.58370405  0.79720665  0.11615687     0.06900
C752        C  0.59113653  0.79771915  0.08385966    -0.27300
H753        H  0.68163768  0.86495696  0.16813986     0.11600
H754        H  0.75042899  0.90554933  0.14652643     0.12800
H755        H  0.61322529  0.80593869  0.02319662     0.11800
H756        H  0.68077349  0.84843905  0.00143715     0.11100
H757        H  0.75244799  0.89592209  0.00897441     0.16500
H758        H  0.79735055  0.93036060  0.10170041     0.12400
H759        H  0.60961211  0.81928395  0.16056168     0.15200
H760        H  0.56670690  0.77962759  0.06883597     0.15000
C761        C  0.32325646  0.86047356  0.03247222    -0.17900
C762        C  0.36417499  0.83818142  0.04351258    -0.20000
C763        C  0.37079640  0.83149945  0.07550916     0.20600
C764        C  0.33625928  0.84827683  0.09662788    -0.02900
C765        C  0.29441251  0.86984225  0.08544613    -0.06000
C766        C  0.28779906  0.87590331  0.05318601     0.20900
C767        C  0.25874461  0.88449523  0.10653331     0.19100
C768        C  0.26616408  0.87924649  0.13858629    -0.17500
C769        C  0.30805457  0.85876216  0.14968147    -0.19700
C770        C  0.34294063  0.84260574  0.12890982     0.20600
C771        C  0.38368756  0.81983971  0.13980752    -0.32700
C772        C  0.41675801  0.80121306  0.11886299     0.01300
C773        C  0.41063172  0.80751923  0.08678300    -0.24100
C774        C  0.24546538  0.89650059  0.04224638    -0.28600
C775        C  0.20895266  0.90948084  0.06310962     0.06900
C776        C  0.21597932  0.90352636  0.09519605    -0.27300
H777        H  0.31888916  0.86489840  0.00765592     0.11600
H778        H  0.39046378  0.82582235  0.02698177     0.12800
H779        H  0.23932892  0.89065385  0.15509363     0.11800
H780        H  0.31269965  0.85474607  0.17451685     0.11100
H781        H  0.38862688  0.81482051  0.16452783     0.16500
H782        H  0.43651418  0.79325801  0.07072388     0.12400
H783        H  0.24014579  0.90110752  0.01750695     0.15200
H784        H  0.18817595  0.91408831  0.11135310     0.15000
C785        C  0.07442584  0.84101198  0.19547300    -0.17900
C786        C  0.07614574  0.81907869  0.22398914    -0.20000
C787        C  0.03731347  0.82205188  0.24484330     0.20600
C788        C  0.99641292  0.84761256  0.23705799    -0.02900
C789        C  0.99462722  0.86966909  0.20818872    -0.06000
C790        C  0.03380587  0.86620637  0.18734133     0.20900
C791        C  0.95340010  0.89451828  0.19998718     0.19100
C792        C  0.91463361  0.89752978  0.22098855    -0.17500
C793        C  0.91645487  0.87577329  0.24968729    -0.19700
C794        C  0.95703703  0.85054282  0.25788614     0.20600
C795        C  0.95862748  0.82739996  0.28617204    -0.32700
C796        C  0.99877624  0.80109265  0.29345626     0.01300
C797        C  0.03828516  0.79919580  0.27307171    -0.24100
C798        C  0.03143202  0.88725404  0.15844350    -0.28600
C799        C  0.99012308  0.91136402  0.14964037     0.06900
C800        C  0.95134846  0.91516446  0.17073172    -0.27300
H801        H  0.10472926  0.83795260  0.17964130     0.11600
H802        H  0.10769520  0.79947533  0.22962755     0.12800
H803        H  0.88269338  0.91643743  0.21511046     0.11800
H804        H  0.88589444  0.87832962  0.26535005     0.11100
H805        H  0.92816364  0.82858625  0.30202902     0.16500
H806        H  0.06943234  0.77922674  0.27905174     0.12400
H807        H  0.06146014  0.88373022  0.14242651     0.15200
H808        H  0.91931308  0.93353545  0.16421849     0.15000
loop_ 
_geom_bond_atom_site_label_1 
_geom_bond_atom_site_label_2 
_geom_bond_distance 
_geom_bond_site_symmetry_2 
_ccdc_geom_bond_type 
O1           Mg3   2.156   1_655  S
O1           Mg9   2.162       .  S
O1           C36   1.237       .  S
C2           O15   1.236       .  S
C2           O39   1.271       .  A
C2           H41   1.081       .  S
Mg3          O32   2.143       .  S
Mg3          O47   2.290       .  S
Mg3          O43   2.280       .  S
Mg3          O14   2.293   1_554  S
O4          Mg46   2.146       .  S
O4          Mg29   2.144   1_545  S
O4           C25   1.237   1_545  S
O5           C36   1.272   1_556  A
O5          Mg29   2.306       .  S
C6            O8   1.274       .  A
C6           O20   1.275       .  A
C6          C700   1.475       .  S
O7           C35   1.271   1_655  A
O7           Mg9   2.298   1_545  S
O8          Mg40   2.276   1_556  S
Mg9          O15   2.150   1_565  S
Mg9          O23   2.286       .  S
Mg9          O11   2.295       .  S
C10          O48   1.275       .  A
C10          O16   1.275   1_455  A
C10         C724   1.491       .  S
O11          C18   1.276       .  A
H12          C25   1.081       .  S
C13          O27   1.237       .  S
C13          O28   1.270   1_556  A
C13          H38   1.081       .  S
O14          C37   1.269       .  A
O15         Mg29   2.160   1_544  S
O16         Mg46   2.298       .  S
C17          O30   1.272       .  A
C17          O22   1.279       .  A
C17         C679   1.481       .  S
C18          O45   1.273       .  A
C18         C748   1.477       .  S
Mg19         O26   2.144   1_545  S
Mg19         O27   2.164       .  S
Mg19         O20   2.295       .  S
Mg19         O21   2.297   1_445  S
Mg19         O48   2.294       .  S
O21          C25   1.271       .  A
O22         Mg29   2.342   1_545  S
O23          C42   1.274       .  A
O24          C44   1.278       .  A
O24         Mg40   2.336   1_565  S
O26         Mg40   2.162   1_566  S
O26          C37   1.236       .  S
O27         Mg46   2.137   1_455  S
O28         Mg40   2.292       .  S
Mg29         O45   2.270   1_556  S
O30         Mg46   2.256       .  S
H31          C36   1.081       .  S
O32         Mg40   2.146   1_565  S
O32          C35   1.237   1_565  S
H33          C35   1.081       .  S
H34          C37   1.081       .  S
O39         Mg46   2.304   1_554  S
C42          O47   1.275   1_655  A
C42         C799   1.486       .  S
O43          C44   1.275       .  A
C44         C775   1.481       .  S
C49          H50   1.111       .  S
C49          C55   1.534   1_455  S
C49          C54   1.534       .  S
C49          C53   1.535       .  S
C51          H52   1.111   1_455  S
C51          C57   1.530       .  S
C51          C56   1.537   1_455  S
C51          C58   1.533   1_455  S
C53          C56   1.374   1_455  D
C53         C727   1.483   1_455  S
C54          C57   1.370       .  D
C54         C628   1.473       .  S
C55          C58   1.373       .  D
C55         C607   1.471       .  S
C56         C652   1.474   1_655  S
C57         C556   1.472       .  S
C58         C580   1.478       .  S
O59         Mg61   2.137   1_455  S
O59         Mg67   2.144       .  S
O59          C94   1.236       .  S
C60          O73   1.235       .  S
C60          O97   1.269       .  A
C60          H99   1.081       .  S
Mg61         O90   2.149       .  S
Mg61        O105   2.307       .  S
Mg61        O101   2.232       .  S
Mg61         O72   2.292   1_556  S
O62        Mg104   2.145       .  S
O62         Mg87   2.141       .  S
O62          C83   1.237       .  S
O63          C94   1.271   1_554  A
O63         Mg87   2.302       .  S
C64          O66   1.274       .  A
C64          O78   1.274       .  A
C64         C508   1.481       .  S
O65          C93   1.271       .  A
O65         Mg67   2.299   1_655  S
O66         Mg98   2.272   1_554  S
Mg67         O73   2.142       .  S
Mg67         O81   2.262       .  S
Mg67         O69   2.277       .  S
C68         O106   1.271       .  A
C68          O74   1.274   1_655  A
C68         C532   1.480       .  S
O69          C76   1.273       .  A
H70          C83   1.081       .  S
C71          O85   1.236       .  S
C71          O86   1.270   1_554  A
C71          H96   1.081       .  S
O72          C95   1.268       .  A
O73         Mg87   2.158   1_556  S
O74        Mg104   2.302       .  S
C75          O88   1.271       .  A
C75          O80   1.278       .  A
C75         C484   1.485       .  S
C76         O103   1.273       .  A
C76         C439   1.477       .  S
Mg77         O84   2.135       .  S
Mg77         O85   2.145       .  S
Mg77         O78   2.282       .  S
Mg77         O79   2.302       .  S
Mg77        O106   2.258       .  S
O79          C83   1.271   1_655  A
O80         Mg87   2.334       .  S
O81         C100   1.271       .  A
O82         C102   1.277       .  A
O82         Mg98   2.323       .  S
O84         Mg98   2.161   1_554  S
O84          C95   1.235       .  S
O85        Mg104   2.138   1_655  S
O86         Mg98   2.298       .  S
Mg87        O103   2.270   1_554  S
O88        Mg104   2.241       .  S
H89          C94   1.081       .  S
O90         Mg98   2.141       .  S
O90          C93   1.236       .  S
H91          C93   1.081       .  S
H92          C95   1.081       .  S
O97        Mg104   2.295   1_556  S
C100        O105   1.274   1_455  A
C100        C655   1.482       .  S
O101        C102   1.271       .  A
C102        C460   1.480       .  S
C107        H108   1.111       .  S
C107        C113   1.535       .  S
C107        C112   1.535   1_655  S
C107        C111   1.536       .  S
C109        H110   1.112       .  S
C109        C115   1.531       .  S
C109        C114   1.531   1_455  S
C109        C116   1.530   1_455  S
C111        C114   1.371       .  D
C111        C796   1.477       .  S
C112        C115   1.372       .  D
C112        C415   1.478       .  S
C113        C116   1.373       .  D
C113        C388   1.477       .  S
C114        C535   1.472       .  S
C115        C340   1.473       .  S
C116        C364   1.472       .  S
O117       Mg119   2.144       .  S
O117       Mg125   2.152       .  S
O117        C152   1.236       .  S
C118        O131   1.235       .  S
C118        O155   1.269       .  A
C118        H157   1.081       .  S
Mg119       O148   2.148       .  S
Mg119       O163   2.298       .  S
Mg119       O159   2.247       .  S
Mg119       O130   2.293       .  S
O120       Mg162   2.149       .  S
O120       Mg145   2.152   1_545  S
O120        C141   1.238   1_545  S
O121        C152   1.271       .  A
O121       Mg145   2.302       .  S
C122        O124   1.275       .  A
C122        O136   1.274       .  A
C122        C631   1.483       .  S
O123        C151   1.271       .  A
O123       Mg125   2.298   1_545  S
O124       Mg156   2.276       .  S
Mg125       O131   2.135   1_565  S
Mg125       O139   2.258       .  S
Mg125       O127   2.293       .  S
C126        O164   1.271       .  A
C126        O132   1.274       .  A
C126        C319   1.484       .  S
O127        C134   1.274       .  A
H128        C141   1.081       .  S
C129        O143   1.236       .  S
C129        O144   1.271       .  A
C129        H154   1.081       .  S
O130        C153   1.269       .  A
O131       Mg145   2.149   1_545  S
O132       Mg162   2.300       .  S
C133        O146   1.271       .  A
C133        O138   1.276       .  A
C133        C604   1.474       .  S
C134        O161   1.274       .  A
C134        C391   1.482       .  S
Mg135       O142   2.136   1_545  S
Mg135       O143   2.149       .  S
Mg135       O136   2.287       .  S
Mg135       O137   2.304   1_545  S
Mg135       O164   2.259       .  S
O137        C141   1.272       .  A
O138       Mg145   2.323   1_545  S
O139        C158   1.271       .  A
O140        C160   1.279       .  A
O140       Mg156   2.337   1_565  S
O142       Mg156   2.157   1_565  S
O142        C153   1.235       .  S
O143       Mg162   2.145       .  S
O144       Mg156   2.302       .  S
Mg145       O161   2.278       .  S
O146       Mg162   2.250       .  S
H147        C152   1.081       .  S
O148       Mg156   2.142   1_565  S
O148        C151   1.237   1_565  S
H149        C151   1.081       .  S
H150        C153   1.081       .  S
O155       Mg162   2.296       .  S
C158        O163   1.274       .  A
C158        C292   1.482       .  S
O159        C160   1.272       .  A
C160        C412   1.485       .  S
C165        H166   1.111       .  S
C165        C171   1.536       .  S
C165        C170   1.533       .  S
C165        C169   1.537       .  S
C167        H168   1.111       .  S
C167        C173   1.535       .  S
C167        C172   1.534       .  S
C167        C174   1.533       .  S
C169        C172   1.369       .  D
C169        C268   1.479       .  S
C170        C173   1.369       .  D
C170        C511   1.471       .  S
C171        C174   1.376       .  D
C171        C487   1.474       .  S
C172        C295   1.473       .  S
C173        C751   1.476       .  S
C174        C772   1.481       .  S
O175       Mg177   2.142       .  S
O175       Mg183   2.153       .  S
O175        C210   1.236       .  S
C176        O189   1.236       .  S
C176        O213   1.270       .  A
C176        H215   1.081       .  S
Mg177       O206   2.143       .  S
Mg177       O221   2.295       .  S
Mg177       O217   2.257       .  S
Mg177       O188   2.296       .  S
O178       Mg220   2.147       .  S
O178       Mg203   2.152       .  S
O178        C199   1.236       .  S
O179        C210   1.270       .  A
O179       Mg203   2.298       .  S
C180        O182   1.273       .  A
C180        O194   1.275       .  A
C180        C367   1.479       .  S
O181        C209   1.271       .  A
O181       Mg183   2.302       .  S
O182       Mg214   2.270       .  S
Mg183       O189   2.129       .  S
Mg183       O197   2.256       .  S
Mg183       O185   2.299       .  S
C184        O222   1.274       .  A
C184        O190   1.276       .  A
C184        C271   1.489       .  S
O185        C192   1.276       .  A
H186        C199   1.081       .  S
C187        O201   1.236       .  S
C187        O202   1.270       .  A
C187        H212   1.081       .  S
O188        C211   1.270       .  A
O189       Mg203   2.153       .  S
O190       Mg220   2.311       .  S
C191        O204   1.271       .  A
C191        O196   1.275       .  A
C191        C343   1.470       .  S
C192        O219   1.274       .  A
C192        C559   1.486       .  S
Mg193       O200   2.143       .  S
Mg193       O201   2.157       .  S
Mg193       O194   2.295       .  S
Mg193       O195   2.300       .  S
Mg193       O222   2.278       .  S
O195        C199   1.270       .  A
O196       Mg203   2.315       .  S
O197        C216   1.271       .  A
O198        C218   1.277       .  A
O198       Mg214   2.325       .  S
O200       Mg214   2.163       .  S
O200        C211   1.236       .  S
O201       Mg220   2.146       .  S
O202       Mg214   2.296       .  S
Mg203       O219   2.280       .  S
O204       Mg220   2.248       .  S
H205        C210   1.081       .  S
O206       Mg214   2.147       .  S
O206        C209   1.237       .  S
H207        C209   1.081       .  S
H208        C211   1.081       .  S
O213       Mg220   2.298       .  S
C216        O221   1.275       .  A
C216        C247   1.481       .  S
O217        C218   1.273       .  A
C218        C583   1.485       .  S
C223        H224   1.112       .  S
C223        C229   1.531       .  S
C223        C228   1.531       .  S
C223        C227   1.531       .  S
C225        H226   1.111       .  S
C225        C231   1.534       .  S
C225        C230   1.535       .  S
C225        C232   1.535       .  S
C227        C230   1.370       .  D
C227        C244   1.471       .  S
C228        C231   1.376       .  D
C228        C463   1.475       .  S
C229        C232   1.373       .  D
C229        C436   1.476       .  S
C230        C316   1.474       .  S
C231        C676   1.478       .  S
C232        C703   1.481       .  S
C233        H249   1.084       .  S
C233        C234   1.398       .  A
C233        C238   1.403       .  A
C234        H250   1.084       .  S
C234        C235   1.402       .  A
C235        C245   1.400       .  A
C235        C236   1.412       .  A
C236        C242   1.413       .  A
C236        C237   1.410       .  A
C237        C239   1.411       .  A
C237        C238   1.411       .  A
C238        C246   1.400       .  A
C239        C248   1.402       .  A
C239        C240   1.404       .  A
C240        H251   1.084       .  S
C240        C241   1.399       .  A
C241        H252   1.084       .  S
C241        C242   1.403       .  A
C242        C243   1.402       .  A
C243        H253   1.085       .  S
C243        C244   1.401       .  A
C244        C245   1.401       .  A
C245        H254   1.084       .  S
C246        H255   1.084       .  S
C246        C247   1.408       .  A
C247        C248   1.408       .  A
C248        H256   1.084       .  S
C257        H273   1.084       .  S
C257        C258   1.400       .  A
C257        C262   1.404       .  A
C258        H274   1.084       .  S
C258        C259   1.403       .  A
C259        C269   1.404       .  A
C259        C260   1.413       .  A
C260        C266   1.413       .  A
C260        C261   1.414       .  A
C261        C263   1.411       .  A
C261        C262   1.411       .  A
C262        C270   1.405       .  A
C263        C272   1.406       .  A
C263        C264   1.405       .  A
C264        H275   1.084       .  S
C264        C265   1.401       .  A
C265        H276   1.084       .  S
C265        C266   1.404       .  A
C266        C267   1.405       .  A
C267        H277   1.085       .  S
C267        C268   1.404       .  A
C268        C269   1.402       .  A
C269        H278   1.084       .  S
C270        H279   1.084       .  S
C270        C271   1.409       .  A
C271        C272   1.410       .  A
C272        H280   1.084       .  S
C281        H297   1.084       .  S
C281        C282   1.399       .  A
C281        C286   1.403       .  A
C282        H298   1.084       .  S
C282        C283   1.404       .  A
C283        C293   1.402       .  A
C283        C284   1.411       .  A
C284        C290   1.411       .  A
C284        C285   1.411       .  A
C285        C287   1.412       .  A
C285        C286   1.413       .  A
C286        C294   1.402       .  A
C287        C296   1.400       .  A
C287        C288   1.403       .  A
C288        H299   1.084       .  S
C288        C289   1.398       .  A
C289        H300   1.084       .  S
C289        C290   1.404       .  A
C290        C291   1.402       .  A
C291        H301   1.084       .  S
C291        C292   1.408       .  A
C292        C293   1.408       .  A
C293        H302   1.084       .  S
C294        H303   1.084       .  S
C294        C295   1.402       .  A
C295        C296   1.400       .  A
C296        H304   1.081       .  S
C305        H321   1.084       .  S
C305        C306   1.399       .  A
C305        C310   1.404       .  A
C306        H322   1.084       .  S
C306        C307   1.403       .  A
C307        C317   1.402       .  A
C307        C308   1.413       .  A
C308        C314   1.412       .  A
C308        C309   1.411       .  A
C309        C311   1.411       .  A
C309        C310   1.411       .  A
C310        C318   1.402       .  A
C311        C320   1.403       .  A
C311        C312   1.404       .  A
C312        H323   1.084       .  S
C312        C313   1.399       .  A
C313        H324   1.084       .  S
C313        C314   1.403       .  A
C314        C315   1.402       .  A
C315        H325   1.084       .  S
C315        C316   1.402       .  A
C316        C317   1.401       .  A
C317        H326   1.084       .  S
C318        H327   1.084       .  S
C318        C319   1.408       .  A
C319        C320   1.408       .  A
C320        H328   1.084       .  S
C329        H345   1.084       .  S
C329        C330   1.400       .  A
C329        C334   1.404       .  A
C330        H346   1.083       .  S
C330        C331   1.404       .  A
C331        C341   1.403       .  A
C331        C332   1.412       .  A
C332        C338   1.413       .  A
C332        C333   1.410       .  A
C333        C335   1.411       .  A
C333        C334   1.413       .  A
C334        C342   1.406       .  A
C335        C344   1.398       .  A
C335        C336   1.403       .  A
C336        H347   1.084       .  S
C336        C337   1.397       .  A
C337        H348   1.084       .  S
C337        C338   1.402       .  A
C338        C339   1.400       .  A
C339        H349   1.083       .  S
C339        C340   1.400       .  A
C340        C341   1.403       .  A
C341        H350   1.084       .  S
C342        H351   1.084       .  S
C342        C343   1.405       .  A
C343        C344   1.404       .  A
C344        H352   1.085       .  S
C353        H369   1.083       .  S
C353        C354   1.399       .  A
C353        C358   1.404       .  A
C354        H370   1.084       .  S
C354        C355   1.403       .  A
C355        C365   1.402       .  A
C355        C356   1.412       .  A
C356        C362   1.413       .  A
C356        C357   1.411       .  A
C357        C359   1.411       .  A
C357        C358   1.412       .  A
C358        C366   1.404       .  A
C359        C368   1.401       .  A
C359        C360   1.404       .  A
C360        H371   1.084       .  S
C360        C361   1.398       .  A
C361        H372   1.084       .  S
C361        C362   1.402       .  A
C362        C363   1.401       .  A
C363        H373   1.084       .  S
C363        C364   1.401       .  A
C364        C365   1.402       .  A
C365        H374   1.085       .  S
C366        H375   1.084       .  S
C366        C367   1.406       .  A
C367        C368   1.407       .  A
C368        H376   1.084       .  S
C377        H393   1.083       .  S
C377        C378   1.400       .  A
C377        C382   1.404       .  A
C378        H394   1.084       .  S
C378        C379   1.403       .  A
C379        C389   1.403       .  A
C379        C380   1.412       .  A
C380        C386   1.412       .  A
C380        C381   1.411       .  A
C381        C383   1.411       .  A
C381        C382   1.412       .  A
C382        C390   1.404       .  A
C383        C392   1.401       .  A
C383        C384   1.404       .  A
C384        H395   1.084       .  S
C384        C385   1.398       .  A
C385        H396   1.084       .  S
C385        C386   1.403       .  A
C386        C387   1.400       .  A
C387        H397   1.084       .  S
C387        C388   1.404       .  A
C388        C389   1.402       .  A
C389        H398   1.083       .  S
C390        H399   1.084       .  S
C390        C391   1.407       .  A
C391        C392   1.408       .  A
C392        H400   1.084       .  S
C401        H417   1.084       .  S
C401        C402   1.402       .  A
C401        C406   1.404       .  A
C402        H418   1.083       .  S
C402        C403   1.405       .  A
C403        C413   1.409       .  A
C403        C404   1.412       .  A
C404        C410   1.410       .  A
C404        C405   1.412       .  A
C405        C407   1.412       .  A
C405        C406   1.413       .  A
C406        C414   1.407       .  A
C407        C416   1.398       .  A
C407        C408   1.402       .  A
C408        H419   1.084       .  S
C408        C409   1.396       .  A
C409        H420   1.084       .  S
C409        C410   1.403       .  A
C410        C411   1.398       .  A
C411        H421   1.084       .  S
C411        C412   1.408       .  A
C412        C413   1.409       .  A
C413        H422   1.084       .  S
C414        H423   1.083       .  S
C414        C415   1.404       .  A
C415        C416   1.402       .  A
C416        H424   1.084       .  S
C425        H441   1.084       .  S
C425        C426   1.397       .  A
C425        C430   1.404       .  A
C426        H442   1.084       .  S
C426        C427   1.403       .  A
C427        C437   1.399       .  A
C427        C428   1.412       .  A
C428        C434   1.412       .  A
C428        C429   1.409       .  A
C429        C431   1.412       .  A
C429        C430   1.411       .  A
C430        C438   1.399       .  A
C431        C440   1.402       .  A
C431        C432   1.403       .  A
C432        H443   1.084       .  S
C432        C433   1.398       .  A
C433        H444   1.083       .  S
C433        C434   1.403       .  A
C434        C435   1.402       .  A
C435        H445   1.083       .  S
C435        C436   1.401       .  A
C436        C437   1.404       .  A
C437        H446   1.085       .  S
C438        H447   1.084       .  S
C438        C439   1.408       .  A
C439        C440   1.406       .  A
C440        H448   1.084       .  S
C449        H465   1.084       .  S
C449        C450   1.395       .  A
C449        C454   1.401       .  A
C450        H466   1.084       .  S
C450        C451   1.403       .  A
C451        C461   1.396       .  A
C451        C452   1.410       .  A
C452        C458   1.412       .  A
C452        C453   1.409       .  A
C453        C455   1.412       .  A
C453        C454   1.411       .  A
C454        C462   1.395       .  A
C455        C464   1.405       .  A
C455        C456   1.404       .  A
C456        H467   1.084       .  S
C456        C457   1.401       .  A
C457        H468   1.083       .  S
C457        C458   1.405       .  A
C458        C459   1.406       .  A
C459        H469   1.084       .  S
C459        C460   1.408       .  A
C460        C461   1.407       .  A
C461        H470   1.084       .  S
C462        H471   1.083       .  S
C462        C463   1.401       .  A
C463        C464   1.403       .  A
C464        H472   1.083       .  S
C473        H489   1.084       .  S
C473        C474   1.402       .  A
C473        C478   1.404       .  A
C474        H490   1.083       .  S
C474        C475   1.405       .  A
C475        C485   1.409       .  A
C475        C476   1.412       .  A
C476        C482   1.410       .  A
C476        C477   1.411       .  A
C477        C479   1.412       .  A
C477        C478   1.412       .  A
C478        C486   1.406       .  A
C479        C488   1.396       .  A
C479        C480   1.401       .  A
C480        H491   1.084       .  S
C480        C481   1.395       .  A
C481        H492   1.084       .  S
C481        C482   1.403       .  A
C482        C483   1.397       .  A
C483        H493   1.084       .  S
C483        C484   1.408       .  A
C484        C485   1.409       .  A
C485        H494   1.084       .  S
C486        H495   1.084       .  S
C486        C487   1.404       .  A
C487        C488   1.400       .  A
C488        H496   1.084       .  S
C497        H513   1.084       .  S
C497        C498   1.397       .  A
C497        C502   1.402       .  A
C498        H514   1.084       .  S
C498        C499   1.403       .  A
C499        C509   1.399       .  A
C499        C500   1.410       .  A
C500        C506   1.412       .  A
C500        C501   1.410       .  A
C501        C503   1.413       .  A
C501        C502   1.413       .  A
C502        C510   1.400       .  A
C503        C512   1.403       .  A
C503        C504   1.403       .  A
C504        H515   1.083       .  S
C504        C505   1.399       .  A
C505        H516   1.084       .  S
C505        C506   1.404       .  A
C506        C507   1.404       .  A
C507        H517   1.084       .  S
C507        C508   1.407       .  A
C508        C509   1.408       .  A
C509        H518   1.084       .  S
C510        H519   1.085       .  S
C510        C511   1.401       .  A
C511        C512   1.401       .  A
C512        H520   1.084       .  S
C521        H537   1.084       .  S
C521        C522   1.399       .  A
C521        C526   1.403       .  A
C522        H538   1.084       .  S
C522        C523   1.404       .  A
C523        C533   1.402       .  A
C523        C524   1.411       .  A
C524        C530   1.412   1_655  A
C524        C525   1.411       .  A
C525        C527   1.412   1_655  A
C525        C526   1.413       .  A
C526        C534   1.402       .  A
C527        C536   1.401       .  A
C527        C528   1.403       .  A
C528        H539   1.084       .  S
C528        C529   1.398       .  A
C529        H540   1.084       .  S
C529        C530   1.404       .  A
C530        C531   1.402       .  A
C531        H541   1.084       .  S
C531        C532   1.407   1_455  A
C532        C533   1.408       .  A
C533        H542   1.084       .  S
C534        H543   1.084       .  S
C534        C535   1.402       .  A
C535        C536   1.400   1_655  A
C536        H544   1.083       .  S
C545        H561   1.083       .  S
C545        C546   1.398       .  A
C545        C550   1.404       .  A
C546        H562   1.084       .  S
C546        C547   1.402       .  A
C547        C557   1.401       .  A
C547        C548   1.413       .  A
C548        C554   1.412       .  A
C548        C549   1.412       .  A
C549        C551   1.412       .  A
C549        C550   1.410       .  A
C550        C558   1.401       .  A
C551        C560   1.406       .  A
C551        C552   1.405       .  A
C552        H563   1.084       .  S
C552        C553   1.400       .  A
C553        H564   1.084       .  S
C553        C554   1.403       .  A
C554        C555   1.403       .  A
C555        H565   1.084       .  S
C555        C556   1.402       .  A
C556        C557   1.401       .  A
C557        H566   1.085       .  S
C558        H567   1.084       .  S
C558        C559   1.408       .  A
C559        C560   1.409       .  A
C560        H568   1.084       .  S
C569        H585   1.084       .  S
C569        C570   1.403       .  A
C569        C574   1.405       .  A
C570        H586   1.084       .  S
C570        C571   1.405       .  A
C571        C581   1.408       .  A
C571        C572   1.413       .  A
C572        C578   1.412       .  A
C572        C573   1.413       .  A
C573        C575   1.410       .  A
C573        C574   1.412       .  A
C574        C582   1.409       .  A
C575        C584   1.399       .  A
C575        C576   1.403       .  A
C576        H587   1.084       .  S
C576        C577   1.396       .  A
C577        H588   1.084       .  S
C577        C578   1.401       .  A
C578        C579   1.399       .  A
C579        H589   1.084       .  S
C579        C580   1.400       .  A
C580        C581   1.405       .  A
C581        H590   1.084       .  S
C582        H591   1.084       .  S
C582        C583   1.410       .  A
C583        C584   1.407       .  A
C584        H592   1.084       .  S
C593        H609   1.083       .  S
C593        C594   1.397       .  A
C593        C598   1.402       .  A
C594        H610   1.084       .  S
C594        C595   1.403       .  A
C595        C605   1.399       .  A
C595        C596   1.411       .  A
C596        C602   1.413       .  A
C596        C597   1.411       .  A
C597        C599   1.413       .  A
C597        C598   1.412       .  A
C598        C606   1.398       .  A
C599        C608   1.405       .  A
C599        C600   1.404       .  A
C600        H611   1.084       .  S
C600        C601   1.401       .  A
C601        H612   1.083       .  S
C601        C602   1.404       .  A
C602        C603   1.406       .  A
C603        H613   1.084       .  S
C603        C604   1.406       .  A
C604        C605   1.405       .  A
C605        H614   1.085       .  S
C606        H615   1.084       .  S
C606        C607   1.400       .  A
C607        C608   1.402       .  A
C608        H616   1.084       .  S
C617        H633   1.084       .  S
C617        C618   1.399       .  A
C617        C622   1.404       .  A
C618        H634   1.083       .  S
C618        C619   1.403       .  A
C619        C629   1.403       .  A
C619        C620   1.413       .  A
C620        C626   1.412       .  A
C620        C621   1.411       .  A
C621        C623   1.411       .  A
C621        C622   1.412       .  A
C622        C630   1.403       .  A
C623        C632   1.401       .  A
C623        C624   1.404       .  A
C624        H635   1.084       .  S
C624        C625   1.398       .  A
C625        H636   1.084       .  S
C625        C626   1.402       .  A
C626        C627   1.399       .  A
C627        H637   1.085       .  S
C627        C628   1.402       .  A
C628        C629   1.401       .  A
C629        H638   1.085       .  S
C630        H639   1.084       .  S
C630        C631   1.407       .  A
C631        C632   1.409       .  A
C632        H640   1.084       .  S
C641        H657   1.084       .  S
C641        C642   1.400       .  A
C641        C646   1.404       .  A
C642        H658   1.083       .  S
C642        C643   1.403       .  A
C643        C653   1.404       .  A
C643        C644   1.413   1_655  A
C644        C650   1.413       .  A
C644        C645   1.412       .  A
C645        C647   1.411       .  A
C645        C646   1.412   1_455  A
C646        C654   1.405       .  A
C647        C656   1.402       .  A
C647        C648   1.404       .  A
C648        H659   1.084       .  S
C648        C649   1.398       .  A
C649        H660   1.084       .  S
C649        C650   1.403       .  A
C650        C651   1.402       .  A
C651        H661   1.085       .  S
C651        C652   1.401       .  A
C652        C653   1.402   1_455  A
C653        H662   1.084       .  S
C654        H663   1.084       .  S
C654        C655   1.408   1_655  A
C655        C656   1.407       .  A
C656        H664   1.085       .  S
C665        H681   1.084       .  S
C665        C666   1.398       .  A
C665        C670   1.404       .  A
C666        H682   1.084       .  S
C666        C667   1.403       .  A
C667        C677   1.401       .  A
C667        C668   1.412       .  A
C668        C674   1.412       .  A
C668        C669   1.413       .  A
C669        C671   1.413       .  A
C669        C670   1.411       .  A
C670        C678   1.402       .  A
C671        C680   1.408       .  A
C671        C672   1.404       .  A
C672        H683   1.083       .  S
C672        C673   1.401       .  A
C673        H684   1.083       .  S
C673        C674   1.404       .  A
C674        C675   1.406       .  A
C675        H685   1.084       .  S
C675        C676   1.403       .  A
C676        C677   1.402       .  A
C677        H686   1.084       .  S
C678        H687   1.085       .  S
C678        C679   1.407       .  A
C679        C680   1.407       .  A
C680        H688   1.084       .  S
C689        H705   1.084       .  S
C689        C690   1.399       .  A
C689        C694   1.403       .  A
C690        H706   1.084       .  S
C690        C691   1.404       .  A
C691        C701   1.402       .  A
C691        C692   1.411       .  A
C692        C698   1.413       .  A
C692        C693   1.411       .  A
C693        C695   1.411       .  A
C693        C694   1.413       .  A
C694        C702   1.403       .  A
C695        C704   1.401       .  A
C695        C696   1.403       .  A
C696        H707   1.084       .  S
C696        C697   1.399       .  A
C697        H708   1.084       .  S
C697        C698   1.404       .  A
C698        C699   1.404       .  A
C699        H709   1.084       .  S
C699        C700   1.405       .  A
C700        C701   1.405       .  A
C701        H710   1.084       .  S
C702        H711   1.084       .  S
C702        C703   1.402       .  A
C703        C704   1.405       .  A
C704        H712   1.084       .  S
C713        H729   1.083       .  S
C713        C714   1.398       .  A
C713        C718   1.403       .  A
C714        H730   1.084       .  S
C714        C715   1.404       .  A
C715        C725   1.402       .  A
C715        C716   1.410       .  A
C716        C722   1.412   1_655  A
C716        C717   1.414       .  A
C717        C719   1.413   1_655  A
C717        C718   1.412       .  A
C718        C726   1.402       .  A
C719        C728   1.408       .  A
C719        C720   1.404       .  A
C720        H731   1.085       .  S
C720        C721   1.402       .  A
C721        H732   1.083       .  S
C721        C722   1.406       .  A
C722        C723   1.410       .  A
C723        H733   1.083       .  S
C723        C724   1.411       .  A
C724        C725   1.410   1_455  A
C725        H734   1.084       .  S
C726        H735   1.084       .  S
C726        C727   1.404       .  A
C727        C728   1.405   1_655  A
C728        H736   1.086       .  S
C737        H753   1.084       .  S
C737        C738   1.396       .  A
C737        C742   1.402       .  A
C738        H754   1.084       .  S
C738        C739   1.403       .  A
C739        C749   1.399       .  A
C739        C740   1.411       .  A
C740        C746   1.412       .  A
C740        C741   1.411       .  A
C741        C743   1.412       .  A
C741        C742   1.412       .  A
C742        C750   1.398       .  A
C743        C752   1.405       .  A
C743        C744   1.404       .  A
C744        H755   1.084       .  S
C744        C745   1.401       .  A
C745        H756   1.083       .  S
C745        C746   1.405       .  A
C746        C747   1.406       .  A
C747        H757   1.084       .  S
C747        C748   1.408       .  A
C748        C749   1.405       .  A
C749        H758   1.085       .  S
C750        H759   1.080       .  S
C750        C751   1.398       .  A
C751        C752   1.405       .  A
C752        H760   1.084       .  S
C761        H777   1.083       .  S
C761        C762   1.402       .  A
C761        C766   1.405       .  A
C762        H778   1.084       .  S
C762        C763   1.404       .  A
C763        C773   1.407       .  A
C763        C764   1.413       .  A
C764        C770   1.412       .  A
C764        C765   1.414       .  A
C765        C767   1.411       .  A
C765        C766   1.413       .  A
C766        C774   1.409       .  A
C767        C776   1.404       .  A
C767        C768   1.404       .  A
C768        H779   1.084       .  S
C768        C769   1.399       .  A
C769        H780   1.084       .  S
C769        C770   1.403       .  A
C770        C771   1.403       .  A
C771        H781   1.084       .  S
C771        C772   1.402       .  A
C772        C773   1.404       .  A
C773        H782   1.084       .  S
C774        H783   1.084       .  S
C774        C775   1.407       .  A
C775        C776   1.407       .  A
C776        H784   1.085       .  S
C785        H801   1.084       .  S
C785        C786   1.397       .  A
C785        C790   1.403       .  A
C786        H802   1.084       .  S
C786        C787   1.402       .  A
C787        C797   1.399       .  A
C787        C788   1.412   1_455  A
C788        C794   1.413       .  A
C788        C789   1.412       .  A
C789        C791   1.412       .  A
C789        C790   1.410   1_655  A
C790        C798   1.400       .  A
C791        C800   1.408       .  A
C791        C792   1.405       .  A
C792        H803   1.083       .  S
C792        C793   1.401       .  A
C793        H804   1.083       .  S
C793        C794   1.404       .  A
C794        C795   1.406       .  A
C795        H805   1.084       .  S
C795        C796   1.403       .  A
C796        C797   1.402   1_655  A
C797        H806   1.084       .  S
C798        H807   1.084       .  S
C798        C799   1.409   1_455  A
C799        C800   1.409       .  A
C800        H808   1.084       .  S
