geometry optimzed in LAMMPS
_audit_creation_date              2020-11-30 
_audit_creation_method            'lammps2cif' 
_symmetry_space_group_name_H-M    'P1' 
_symmetry_Int_Tables_number       1 
_symmetry_cell_setting            triclinic 
loop_ 
_symmetry_equiv_pos_as_xyz 
  x,y,z 
_cell_length_a                    44.81010665 
_cell_length_b                    32.18823567900351 
_cell_length_c                    35.996436095929894 
_cell_angle_alpha                 89.82770951088108 
_cell_angle_beta                  87.65045851286112 
_cell_angle_gamma                 90.58996834754595 
loop_ 
_atom_site_label 
_atom_site_type_symbol 
_atom_site_fract_x 
_atom_site_fract_y 
_atom_site_fract_z 
_atom_site_charge 
O1          O  0.44160617  0.07492317  0.04667054    -0.80600
O2          O  0.02589055  0.92530582  0.01721101    -0.65300
O3          O  0.49612176  0.03214816  0.03985678    -1.11900
C4          C  0.99508221  0.04672738  0.90839163     1.06300
O5          O  0.05783728  0.94762223  0.97302267    -0.78500
O6          O  0.05827625  0.02832990  0.95575431    -0.66100
Ni7        Ni  0.46493151  0.03921533  0.07737389     1.34900
C8          C  0.05279526  0.06302234  0.97100537     0.85000
O9          O  0.01746473  0.96522310  0.07988859    -0.79000
O10         O  0.48439434  0.00362537  0.11255401    -0.89300
C11         C  0.05114913  0.92394487  0.00056847     0.84600
O12         O  0.44034061  0.99408724  0.06276330    -0.67500
O13         O  0.01439048  0.01776165  0.90671037    -0.86800
C14         C  0.44614519  0.95954780  0.04734523     0.85400
C15         C  0.50415162  0.97528906  0.11028403     1.07000
H16         H  0.98611980  0.97485928  0.97135105     0.38800
O17         O  0.00284828  0.99108821  0.97908594    -1.09400
O18         O  0.02708839  0.07328133  0.98413226    -0.66100
Ni19       Ni  0.48864463  0.04553608  0.98923908     1.26300
O20         O  0.47195210  0.95017005  0.03420234    -0.66300
O21         O  0.48168509  0.05786122  0.93854868    -0.78600
C22         C  0.44723702  0.09872153  0.01893412     0.84800
O23         O  0.47233864  0.09804593  0.00156988    -0.65800
Ni24       Ni  0.03406273  0.98280025  0.94193412     1.27400
Ni25       Ni  0.01026706  0.97782740  0.02950133     1.26100
H26         H  0.51287186  0.04850244  0.04763861     0.39400
C27         C  0.49533869  0.20683855  0.64418173     0.45800
H28         H  0.99595179  0.17261440  0.64785920    -0.03300
C29         C  0.49397303  0.28737872  0.63711768     0.45800
H30         H  0.49341027  0.32174878  0.63456977    -0.03300
C31         C  0.49359290  0.22996609  0.68144787    -0.16900
C32         C  0.02279892  0.22532479  0.62240385    -0.16700
C33         C  0.46817962  0.22219911  0.62345437    -0.17100
C34         C  0.99276663  0.27233675  0.67785647    -0.17100
C35         C  0.02229094  0.26791095  0.61923037    -0.16600
C36         C  0.46799257  0.26472879  0.61872037    -0.16900
O37         O  0.05656216  0.57218045  0.95831104    -0.80600
O38         O  0.47405566  0.41901758  0.98841721    -0.65300
O39         O  0.00308294  0.52691033  0.96402173    -1.11900
C40         C  0.50542802  0.54158917  0.09616597     1.06300
O41         O  0.44337727  0.44433739  0.03242902    -0.78500
O42         O  0.44482557  0.52213554  0.05739636    -0.66100
Ni43       Ni  0.03258611  0.53843419  0.92616342     1.34900
C44         C  0.44663648  0.55524427  0.03813601     0.85000
O45         O  0.48382188  0.45829025  0.92392382    -0.79000
O46         O  0.01174737  0.50452234  0.89077280    -0.89300
C47         C  0.44858429  0.42013512  0.00514068     0.84600
O48         O  0.05763364  0.49300323  0.93593667    -0.67500
O49         O  0.49219594  0.50628927  0.09886165    -0.86800
C50         C  0.05418014  0.45752582  0.95109694     0.85400
C51         C  0.99462606  0.47243769  0.89300292     1.07000
H52         H  0.51613115  0.47254044  0.03181009     0.38800
O53         O  0.49826713  0.48660662  0.02489112    -1.09400
O54         O  0.46968340  0.56493432  0.01793397    -0.66100
Ni55       Ni  0.00955933  0.54242132  0.01431505     1.26300
O56         O  0.02987420  0.44635249  0.96840487    -0.66300
O57         O  0.01446164  0.55758150  0.06518914    -0.78600
C58         C  0.05013762  0.59633892  0.98547914     0.84800
O59         O  0.02418529  0.59591142  0.00069270    -0.65800
Ni60       Ni  0.46941333  0.47512144  0.06395523     1.27400
Ni61       Ni  0.49059297  0.47170804  0.97462524     1.26100
H62         H  0.98559270  0.54120435  0.95616138     0.39400
C63         C  0.50286615  0.78687200  0.36416122     0.45800
H64         H  0.00154286  0.82114387  0.36716386    -0.03300
C65         C  0.50661610  0.70660391  0.35615946     0.45800
H66         H  0.50796088  0.67244222  0.35249195    -0.03300
C67         C  0.50626021  0.77287562  0.32330407    -0.16900
C68         C  0.02914462  0.76739222  0.38379754    -0.16700
C69         C  0.47546258  0.76348846  0.38062413    -0.17100
C70         C  0.00869816  0.73061616  0.31900389    -0.17100
C71         C  0.03168980  0.72517703  0.37903894    -0.16600
C72         C  0.47736787  0.72117537  0.37619200    -0.16900
O73         O  0.30825356  0.05531539  0.47324420    -0.80600
O74         O  0.22375952  0.90510338  0.49707409    -0.65300
O75         O  0.25345352  0.01299113  0.47432882    -1.11900
C76         C  0.24977211  0.02841738  0.60626869     1.06300
O77         O  0.19118919  0.93037780  0.53863463    -0.78500
O78         O  0.19058580  0.00896635  0.56242425    -0.66100
Ni79       Ni  0.28477331  0.02442174  0.43855594     1.34900
C80         C  0.19422249  0.04275419  0.54442137     0.85000
O81         O  0.23726684  0.94405813  0.43295723    -0.79000
O82         O  0.26462929  0.99285765  0.40139060    -0.89300
C83         C  0.19770236  0.90541333  0.51224162     0.84600
O84         O  0.30818965  0.97730322  0.44795686    -0.67500
O85         O  0.23523624  0.99411680  0.60827793    -0.86800
C86         C  0.30448918  0.94343615  0.46561815     0.85400
C87         C  0.24865951  0.95962771  0.40284229     1.07000
H88         H  0.26275344  0.95910026  0.54380217     0.38800
O89         O  0.24545261  0.97323466  0.53515436    -1.09400
O90         O  0.21832928  0.05228147  0.52623803    -0.66100
Ni91       Ni  0.25778079  0.02857850  0.52492940     1.26300
O92         O  0.27992027  0.93317878  0.48261943    -0.66300
O93         O  0.26080116  0.04381129  0.57600819    -0.78600
C94         C  0.30031632  0.07983967  0.49941329     0.84800
O95         O  0.27350430  0.08131478  0.51156301    -0.65800
Ni96       Ni  0.21479870  0.96220856  0.57185628     1.27400
Ni97       Ni  0.24057911  0.95792288  0.48434216     1.26100
H98         H  0.23636722  0.02732976  0.46525743     0.39400
C99         C  0.24591811  0.71284819  0.13618325     0.45800
H100        H  0.24642954  0.67840800  0.13442899    -0.03300
C101        C  0.24533543  0.79364661  0.13911382     0.45800
H102        H  0.24549672  0.82810789  0.13982903    -0.03300
C103        C  0.24349528  0.72990661  0.17627899    -0.16900
C104        C  0.27391260  0.73360846  0.11832322    -0.16700
C105        C  0.21970962  0.73198019  0.11639994    -0.17100
C106        C  0.24275133  0.77289851  0.17797731    -0.17100
C107        C  0.27393367  0.77599304  0.12017303    -0.16600
C108        C  0.21942714  0.77465444  0.11774625    -0.16900
O109        O  0.19700917  0.56421587  0.52524368    -0.80600
O110        O  0.27482407  0.40357741  0.50238591    -0.65300
O111        O  0.24864881  0.51359829  0.52109468    -1.11900
C112        C  0.25239421  0.52597895  0.38953403     1.06300
O113        O  0.30783140  0.42339716  0.45870353    -0.78500
O114        O  0.31309382  0.50285324  0.44155577    -0.66100
Ni115      Ni  0.21717148  0.52531932  0.55694180     1.34900
C116        C  0.30809341  0.53822856  0.45562519     0.85000
O117        O  0.26617149  0.44588382  0.56408957    -0.79000
O118        O  0.23256195  0.48702275  0.59307414    -0.89300
C119        C  0.30056405  0.40109688  0.48692390     0.84600
O120        O  0.19112046  0.48344942  0.54072993    -0.67500
O121        O  0.27113661  0.49641824  0.38928606    -0.86800
C122        C  0.19481541  0.44700024  0.52853770     0.85400
C123        C  0.25110950  0.45713171  0.59290967     1.07000
H124        H  0.23777355  0.45482083  0.45333799     0.38800
O125        O  0.25486506  0.47016865  0.46157245    -1.09400
O126        O  0.28222283  0.55043019  0.46603611    -0.66100
Ni127      Ni  0.24285398  0.52597735  0.46987136     1.26300
O128        O  0.22039467  0.43331216  0.51758633    -0.66300
O129        O  0.23741805  0.53735335  0.41842499    -0.78600
C130        C  0.20495594  0.58619314  0.49695460     0.84800
O131        O  0.22972004  0.58047356  0.48007301    -0.65800
Ni132      Ni  0.28717983  0.45980678  0.42606480     1.27400
Ni133      Ni  0.26044900  0.45756545  0.51285604     1.26100
H134        H  0.26593145  0.52862150  0.52908040     0.39400
C135        C  0.25574114  0.29214067  0.85771108     0.45800
H136        H  0.25565080  0.32661672  0.85658888    -0.03300
C137        C  0.25647139  0.21155315  0.86285018     0.45800
H138        H  0.25639864  0.17739582  0.86639863    -0.03300
C139        C  0.25998351  0.27049370  0.81950961    -0.16900
C140        C  0.28075612  0.27592526  0.88110412    -0.16700
C141        C  0.22679366  0.27323449  0.87503779    -0.17100
C142        C  0.25997592  0.22731723  0.82212235    -0.17100
C143        C  0.28143370  0.23371016  0.88357722    -0.16600
C144        C  0.22719947  0.23074663  0.87828992    -0.16900
C145        C  0.26090603  0.29658381  0.78475225    -0.11700
C146        C  0.28111026  0.29088197  0.75381439     0.03800
C147        C  0.28020028  0.31759664  0.72290461    -0.12200
C148        C  0.26130543  0.35220712  0.72312019     0.18700
C149        C  0.24275378  0.35939030  0.75491326    -0.09200
C150        C  0.24179102  0.33099572  0.78428728    -0.02200
H151        H  0.29477052  0.31172513  0.69878041     0.05200
C152        C  0.25975062  0.37936467  0.68961516     0.20700
H153        H  0.22616081  0.33662784  0.80741079     0.10400
C154        C  0.23187207  0.38520821  0.67409516    -0.15600
C155        C  0.22863951  0.41179294  0.64381936     0.03400
C156        C  0.25383889  0.43218492  0.62721044    -0.10900
C157        C  0.28200644  0.42527200  0.64171457    -0.00900
C158        C  0.28504158  0.39978593  0.67310409    -0.06100
H159        H  0.21232492  0.36907740  0.68583662     0.06400
H160        H  0.30161926  0.44030256  0.62897265     0.09800
Br161      Br  0.21982118  0.40919429  0.76114867    -0.05800
Br162      Br  0.31219442  0.25023020  0.75235914    -0.02700
Br163      Br  0.18930686  0.41710928  0.62533333     0.00100
Br164      Br  0.32377757  0.39589406  0.69352153    -0.04300
C165        C  0.24415314  0.70056579  0.20846561    -0.11700
C166        C  0.22214853  0.69950165  0.23778965     0.03800
C167        C  0.22373836  0.66966630  0.26617021    -0.12200
C168        C  0.24646445  0.63991512  0.26551464     0.18700
C169        C  0.26750548  0.63977021  0.23534176    -0.09200
C170        C  0.26648323  0.67020809  0.20766118    -0.02200
H171        H  0.20697379  0.66941279  0.28873150     0.05200
C172        C  0.24813237  0.60965754  0.29664370     0.20700
H173        H  0.28307689  0.66970039  0.18493507     0.10400
C174        C  0.22506897  0.58019987  0.30325659    -0.15600
C175        C  0.22610618  0.55177297  0.33291708     0.03400
C176        C  0.25080248  0.55199148  0.35584450    -0.10900
C177        C  0.27374477  0.58138757  0.34919511    -0.00900
C178        C  0.27230145  0.61056307  0.32049704    -0.06100
H179        H  0.20613508  0.57955989  0.28549105     0.06400
H180        H  0.29229354  0.58287010  0.36757808     0.09800
Br181      Br  0.29712211  0.59732733  0.22949696    -0.05800
Br182      Br  0.18788792  0.73486652  0.23895525    -0.02700
Br183      Br  0.19350687  0.51347557  0.34134385     0.00100
Br184      Br  0.30263105  0.65317237  0.31705795    -0.04300
C185        C  0.24542668  0.93554523  0.36821764    -0.11700
C186        C  0.21938307  0.91238090  0.36151264     0.03800
C187        C  0.21915811  0.88400786  0.33207862    -0.12200
C188        C  0.24468633  0.87837672  0.30875023     0.18700
C189        C  0.27020779  0.90322284  0.31414110    -0.09200
C190        C  0.27047989  0.93124711  0.34379076    -0.02200
H191        H  0.19897178  0.86633874  0.32729219     0.05200
C192        C  0.24334402  0.84930439  0.27697078     0.20700
H193        H  0.29073142  0.94882891  0.34841392     0.10400
C194        C  0.22419291  0.85850206  0.24851523    -0.15200
C195        C  0.22287097  0.83341828  0.21704521     0.03400
C196        C  0.24162272  0.79835714  0.21289724    -0.10900
C197        C  0.26020943  0.78851253  0.24225333    -0.00900
C198        C  0.26075347  0.81314473  0.27431368    -0.06100
H199        H  0.21006974  0.88558522  0.25084720     0.06400
H200        H  0.27486913  0.76205421  0.24007385     0.09800
Br201      Br  0.30490475  0.90093915  0.28113621    -0.05800
Br202      Br  0.18326430  0.92038108  0.39064175    -0.02700
Br203      Br  0.19297524  0.84806579  0.18302706     0.00100
Br204      Br  0.28481182  0.79548602  0.31417682    -0.04300
C205        C  0.25205144  0.05368534  0.64019741    -0.11700
C206        C  0.22649722  0.06163941  0.66338047     0.03800
C207        C  0.22790091  0.09121715  0.69161821    -0.12200
C208        C  0.25443142  0.11308555  0.69757625     0.18700
C209        C  0.28023916  0.10410171  0.67541331    -0.09200
C210        C  0.27874728  0.07518968  0.64658157    -0.02200
H211        H  0.20812930  0.09730526  0.70901687     0.05200
C212        C  0.25530105  0.14285009  0.72877034     0.20700
H213        H  0.29843253  0.06979320  0.62883358     0.10400
C214        C  0.27267209  0.13306403  0.75875164    -0.15600
C215        C  0.27485575  0.15983929  0.78888222     0.03400
C216        C  0.25884578  0.19773079  0.78998816    -0.10900
C217        C  0.24028301  0.20651123  0.76029437    -0.00900
C218        C  0.23873896  0.17980745  0.72969463    -0.06100
H219        H  0.28499894  0.10425165  0.75846805     0.06400
H220        H  0.22672626  0.23414228  0.76086076     0.09800
Br221      Br  0.31788811  0.13100610  0.68298059    -0.05800
Br222      Br  0.18830222  0.03581287  0.65630008    -0.02700
Br223      Br  0.30145513  0.14158604  0.82558789     0.00100
Br224      Br  0.21443743  0.19569493  0.68946276    -0.04300
C225        C  0.05805029  0.70148460  0.39166982    -0.11700
C226        C  0.05548298  0.66471892  0.41303916     0.03800
C227        C  0.08082612  0.64828465  0.42900449    -0.12200
C228        C  0.10874103  0.66863853  0.42547941     0.18700
C229        C  0.11158575  0.70380440  0.40201041    -0.09200
C230        C  0.08666435  0.71880878  0.38462252    -0.02200
H231        H  0.07848520  0.62006346  0.44536858     0.05200
C232        C  0.13447255  0.65211704  0.44568869     0.20700
H233        H  0.08945476  0.74570674  0.36663472     0.10400
C234        C  0.16167731  0.64539461  0.42615292    -0.15600
C235        C  0.18638436  0.62996229  0.44382957     0.03400
C236        C  0.18314585  0.61515472  0.48091427    -0.10900
C237        C  0.15613630  0.62291761  0.50087527    -0.00900
C238        C  0.13233239  0.64237006  0.48403340    -0.06100
H239        H  0.16390833  0.65230473  0.39672173     0.06400
H240        H  0.15328084  0.61332762  0.52968309     0.09800
Br241      Br  0.14795862  0.73530543  0.39434138    -0.05800
Br242      Br  0.01809036  0.63739211  0.42462173    -0.02700
Br243      Br  0.22352452  0.63231667  0.41529239     0.00100
Br244      Br  0.09789194  0.65548645  0.51518409    -0.04300
C245        C  0.33332674  0.56767337  0.45700373    -0.11700
C246        C  0.36221528  0.55473715  0.46574155     0.03800
C247        C  0.38676803  0.58099264  0.45807830    -0.12200
C248        C  0.38283991  0.62003993  0.44183093     0.18700
C249        C  0.35379342  0.63417705  0.43591309    -0.09200
C250        C  0.32927326  0.60817829  0.44385593    -0.02200
H251        H  0.40906672  0.57009993  0.46298979     0.05200
C252        C  0.40896488  0.64307039  0.42611988     0.20700
H253        H  0.30721124  0.61856177  0.43706081     0.10400
C254        C  0.41307968  0.64463125  0.38734901    -0.15600
C255        C  0.43588609  0.66873873  0.37061450     0.03400
C256        C  0.45495394  0.69195763  0.39281250    -0.10900
C257        C  0.45145733  0.68938652  0.43171791    -0.00900
C258        C  0.42889055  0.66457829  0.44850313    -0.06100
H259        H  0.39788113  0.62783871  0.37000829     0.06400
H260        H  0.46617264  0.70706652  0.44900041     0.09800
Br261      Br  0.34674669  0.68741791  0.41412016    -0.05800
Br262      Br  0.36934938  0.50146988  0.48754286    -0.02700
Br263      Br  0.43816524  0.67135154  0.31753317     0.00100
Br264      Br  0.42553570  0.66196466  0.50171453    -0.04300
C265        C  0.32974633  0.91399903  0.46331161    -0.11700
C266        C  0.35907797  0.92803065  0.45358738     0.03800
C267        C  0.38069816  0.89975177  0.44161706    -0.12200
C268        C  0.37469369  0.85690554  0.44145722     0.18700
C269        C  0.34666707  0.84247521  0.45577560    -0.09200
C270        C  0.32418965  0.87096543  0.46551228    -0.02200
H271        H  0.40256234  0.91143253  0.43249138     0.05200
C272        C  0.39901143  0.82879928  0.42822386     0.20700
H273        H  0.30218774  0.85937691  0.47409583     0.10400
C274        C  0.42725931  0.83439965  0.44279058    -0.15600
C275        C  0.45232324  0.81445447  0.42750732     0.03400
C276        C  0.44927596  0.78507879  0.39875243    -0.10900
C277        C  0.42064342  0.77795971  0.38526833    -0.00900
C278        C  0.39597793  0.80095390  0.39835744    -0.06100
H279        H  0.43013722  0.85635981  0.46516591     0.06400
H280        H  0.41786378  0.75669276  0.36239481     0.09800
Br281      Br  0.33856205  0.78473199  0.46496162    -0.05800
Br282      Br  0.37185193  0.98509797  0.45742260    -0.02700
Br283      Br  0.48948865  0.83124658  0.44708603     0.00100
Br284      Br  0.36035056  0.79775415  0.37062507    -0.04300
C285        C  0.17276293  0.88150374  0.49628423    -0.11700
C286        C  0.17681595  0.85181479  0.46767297     0.03800
C287        C  0.15193319  0.83624137  0.44973024    -0.12200
C288        C  0.12294651  0.84874702  0.46028090     0.18700
C289        C  0.11869182  0.87647657  0.48988966    -0.09200
C290        C  0.14334779  0.89257177  0.50751069    -0.02200
H291        H  0.15525322  0.81447294  0.42723280     0.05200
C292        C  0.09723337  0.83088810  0.44149751     0.20700
H293        H  0.13927077  0.91511694  0.52935539     0.10400
C294        C  0.07957996  0.80076160  0.46025921    -0.15600
C295        C  0.05575669  0.78180129  0.44297640     0.03400
C296        C  0.04993363  0.79223674  0.40581073    -0.10900
C297        C  0.06642974  0.82407360  0.38790905    -0.00900
C298        C  0.08992537  0.84349487  0.40551952    -0.06100
H299        H  0.08447698  0.79185866  0.48840134     0.06400
H300        H  0.06180273  0.83265195  0.35959771     0.09800
Br301      Br  0.07966189  0.89490997  0.50599898    -0.05800
Br302      Br  0.21518493  0.83075888  0.45163209    -0.02700
Br303      Br  0.03148832  0.74298555  0.47183249     0.00100
Br304      Br  0.11081683  0.88724283  0.37930469    -0.04300
C305        C  0.07965042  0.42811267  0.94514760    -0.11700
C306        C  0.08180392  0.38896871  0.96296186     0.03800
C307        C  0.10527369  0.36201205  0.95262681    -0.12200
C308        C  0.12684579  0.37338997  0.92494799     0.18700
C309        C  0.12514227  0.41236195  0.90780833    -0.09200
C310        C  0.10199116  0.43911579  0.91789981    -0.02200
H311        H  0.10677696  0.33212262  0.96630350     0.05200
C312        C  0.15162684  0.34526200  0.91428029     0.20700
H313        H  0.10132286  0.46856679  0.90336474     0.10400
C314        C  0.14882201  0.31875719  0.88371566    -0.15600
C315        C  0.17323052  0.29575624  0.86999470     0.03400
C316        C  0.20093620  0.29906292  0.88706143    -0.10900
C317        C  0.20375519  0.32584292  0.91736106    -0.00900
C318        C  0.17932324  0.34863895  0.93115144    -0.06100
H319        H  0.12782854  0.31688611  0.86988696     0.06400
H320        H  0.22490378  0.32849454  0.93070890     0.09800
Br321      Br  0.15394936  0.43029595  0.86993516    -0.05800
Br322      Br  0.05437792  0.37067572  0.00210646    -0.02700
Br323      Br  0.16817418  0.26228483  0.82662030     0.00100
Br324      Br  0.18479191  0.38474701  0.97261278    -0.04300
C325        C  0.30226246  0.30320979  0.89984921    -0.11700
C326        C  0.32986000  0.31414792  0.88238196     0.03800
C327        C  0.35174351  0.33395156  0.90258277    -0.12200
C328        C  0.34656678  0.34353735  0.94022876     0.18700
C329        C  0.31832383  0.33474802  0.95730347    -0.09200
C330        C  0.29648985  0.31436060  0.93709670    -0.02200
H331        H  0.37316059  0.34141638  0.88896668     0.05200
C332        C  0.37108938  0.36356878  0.96009063     0.20700
H333        H  0.27517545  0.30648141  0.95067684     0.10400
C334        C  0.38044017  0.40351525  0.94893307    -0.15600
C335        C  0.40576806  0.42188292  0.96342304     0.03400
C336        C  0.42281144  0.39974727  0.98872593    -0.10900
C337        C  0.41319208  0.36018041  0.00070718    -0.00900
C338        C  0.38738670  0.34201680  0.98666571    -0.06100
H339        H  0.36803063  0.42037620  0.92864070     0.06400
H340        H  0.42565757  0.34353127  0.02106074     0.09800
Br341      Br  0.30838543  0.35062322  0.00757789    -0.05800
Br342      Br  0.33911742  0.30209120  0.83129259    -0.02700
Br343      Br  0.41572382  0.47784151  0.94853790     0.00100
Br344      Br  0.37567755  0.28757975  0.00394576    -0.04300
C345        C  0.19741235  0.70718494  0.09598702    -0.11700
C346        C  0.17925767  0.67611768  0.11348006     0.03800
C347        C  0.15539277  0.65878414  0.09475747    -0.12200
C348        C  0.14929935  0.67184257  0.05875100     0.18700
C349        C  0.16771946  0.70193570  0.04090068    -0.09200
C350        C  0.19178212  0.71876831  0.05924759    -0.02200
H351        H  0.14125012  0.63541273  0.10849598     0.05200
C352        C  0.12391880  0.65336003  0.03981364     0.20700
H353        H  0.20541440  0.74253081  0.04530534     0.10400
C354        C  0.09493633  0.66719324  0.04834185    -0.15600
C355        C  0.07043586  0.65055616  0.03028167     0.03400
C356        C  0.07490993  0.61946515  0.00282233    -0.10900
C357        C  0.10432994  0.60631895  0.99434545    -0.00900
C358        C  0.12855147  0.62262106  0.01277023    -0.06100
H359        H  0.09140503  0.69112951  0.06912451     0.06400
H360        H  0.10863362  0.58201763  0.97414546     0.09800
Br361      Br  0.15980059  0.72263206  0.99230323    -0.05800
Br362      Br  0.18423630  0.65770508  0.16337354    -0.02700
Br363      Br  0.03209223  0.67260393  0.04449305     0.00100
Br364      Br  0.16754484  0.60081124  0.00122945    -0.04300
C365        C  0.42055009  0.58349682  0.04124537    -0.11700
C366        C  0.42256923  0.62691367  0.03476279     0.03800
C367        C  0.39844848  0.65238876  0.04509315    -0.12200
C368        C  0.37209246  0.63542153  0.06127408     0.18700
C369        C  0.36924058  0.59222751  0.06551561    -0.09200
C370        C  0.39320933  0.56676749  0.05552384    -0.02200
H371        H  0.40047941  0.68572136  0.04129183     0.05200
C372        C  0.34802028  0.66298291  0.07491771     0.20700
H373        H  0.39064454  0.53363511  0.06018726     0.10400
C374        C  0.32302167  0.66851051  0.05341325    -0.15600
C375        C  0.29870344  0.69156242  0.06701593     0.03400
C376        C  0.29929386  0.70947300  0.10263135    -0.10900
C377        C  0.32462160  0.70478471  0.12375962    -0.00900
C378        C  0.34888198  0.68155878  0.11021653    -0.06100
H379        H  0.32228537  0.65431683  0.02620626     0.06400
H380        H  0.32530280  0.71875556  0.15107032     0.09800
Br381      Br  0.33355615  0.56681650  0.08686385    -0.05800
Br382      Br  0.45751262  0.65425541  0.01371797    -0.02700
Br383      Br  0.26570426  0.69830634  0.03551439     0.00100
Br384      Br  0.38220232  0.67461599  0.14132145    -0.04300
C385        C  0.50872515  0.56713593  0.13016334    -0.11700
C386        C  0.48632565  0.56750373  0.15915999     0.03800
C387        C  0.48785682  0.59655017  0.18792193    -0.12200
C388        C  0.51075929  0.62652446  0.18810846     0.18700
C389        C  0.03309845  0.62630847  0.15940337    -0.09200
C390        C  0.03202464  0.59675903  0.13096679    -0.02200
H391        H  0.47057777  0.59645162  0.20988823     0.05200
C392        C  0.51139029  0.65679233  0.21914431     0.20700
H393        H  0.04899872  0.59788253  0.10865242     0.10400
C394        C  0.03491671  0.65528471  0.24345055    -0.15600
C395        C  0.03548564  0.68115001  0.27451132     0.03400
C396        C  0.51177966  0.70868456  0.28254783    -0.10900
C397        C  0.48903413  0.71188983  0.25700132    -0.00900
C398        C  0.48857610  0.68608613  0.22565555    -0.06100
H399        H  0.05290831  0.63352420  0.23835938     0.06400
H400        H  0.47082084  0.73318346  0.26229514     0.09800
Br401      Br  0.06432527  0.66760277  0.15635507    -0.05800
Br402      Br  0.45109456  0.53285528  0.15943763    -0.02700
Br403      Br  0.07039682  0.67891899  0.30301236     0.00100
Br404      Br  0.45638131  0.69193117  0.19263132    -0.04300
C405        C  0.04754092  0.29303903  0.60241038    -0.11700
C406        C  0.04358404  0.32169845  0.57333033     0.03800
C407        C  0.06836498  0.34158996  0.55623675    -0.12200
C408        C  0.09728495  0.33539980  0.56861709     0.18700
C409        C  0.10112477  0.30848702  0.59901661    -0.09200
C410        C  0.07647360  0.28705275  0.61503696    -0.02200
H411        H  0.06494590  0.36312112  0.53363716     0.05200
C412        C  0.12174711  0.36265849  0.55331577     0.20700
H413        H  0.07984111  0.26619735  0.63811148     0.10400
C414        C  0.11744369  0.40554613  0.55524850    -0.15600
C415        C  0.13969158  0.43354309  0.54335823     0.03400
C416        C  0.16817764  0.41880268  0.53087690    -0.10900
C417        C  0.17172718  0.37561767  0.52631147    -0.00900
C418        C  0.14852321  0.34764074  0.53658729    -0.06100
H419        H  0.09650619  0.41753244  0.56667984     0.06400
H420        H  0.19283152  0.36339463  0.51574577     0.09800
Br421      Br  0.13869854  0.30274402  0.62221924    -0.05800
Br422      Br  0.00541759  0.33468148  0.55447461    -0.02700
Br423      Br  0.12849947  0.49117903  0.54581369     0.00100
Br424      Br  0.15401820  0.28972147  0.52605804    -0.04300
C425        C  0.44503004  0.28733856  0.59793857    -0.11700
C426        C  0.43778394  0.27630571  0.56131625     0.03800
C427        C  0.41437512  0.29582184  0.54427405    -0.12200
C428        C  0.39787184  0.32660652  0.56262517     0.18700
C429        C  0.40597511  0.33958064  0.59811133    -0.09200
C430        C  0.42945919  0.31997185  0.61550132    -0.02200
H431        H  0.40908787  0.28715875  0.51622054     0.05200
C432        C  0.37284942  0.34519046  0.54336905     0.20700
H433        H  0.43523008  0.32984637  0.64298977     0.10400
C434        C  0.34338586  0.33439832  0.55430187    -0.15600
C435        C  0.31920097  0.35012656  0.53533445     0.03400
C436        C  0.32449797  0.37720220  0.50459775    -0.10900
C437        C  0.35433769  0.38633505  0.49312003    -0.00900
C438        C  0.37825574  0.37095516  0.51230016    -0.06100
H439        H  0.33922817  0.31347596  0.57762773     0.06400
H440        H  0.35934213  0.40693297  0.46981350     0.09800
Br441      Br  0.38644167  0.38498653  0.62284807    -0.05800
Br442      Br  0.45945582  0.23689483  0.53148445    -0.02700
Br443      Br  0.27997188  0.33245482  0.55265899     0.00100
Br444      Br  0.41799853  0.38747970  0.49601453    -0.04300
C445        C  0.44284482  0.19460101  0.61322130    -0.11700
C446        C  0.44698377  0.15847348  0.59148325     0.03800
C447        C  0.42225642  0.13889723  0.57633372    -0.12200
C448        C  0.39340772  0.15464184  0.58244138     0.18700
C449        C  0.38896616  0.18816401  0.60687427    -0.09200
C450        C  0.41351966  0.20745440  0.62228686    -0.02200
H451        H  0.42572290  0.11257187  0.55802477     0.05200
C452        C  0.36861610  0.13660633  0.56184280     0.20700
H453        H  0.40971257  0.23419901  0.63993806     0.10400
C454        C  0.36002281  0.09526389  0.56875381    -0.15600
C455        C  0.33787095  0.07646748  0.54823255     0.03400
C456        C  0.32347266  0.09950537  0.52097235    -0.10900
C457        C  0.33199733  0.14070717  0.51388795    -0.00900
C458        C  0.35480408  0.15915818  0.53366599    -0.06100
H459        H  0.37094940  0.07739530  0.58973038     0.06400
H460        H  0.32145537  0.15814708  0.49232080     0.09800
Br461      Br  0.35004389  0.20991037  0.61890709    -0.05800
Br462      Br  0.48560013  0.13733994  0.57706510    -0.02700
Br463      Br  0.32880363  0.01880472  0.55746279     0.00100
Br464      Br  0.36760965  0.21400198  0.51920592    -0.04300
C465        C  0.16910957  0.07235933  0.54676001    -0.11700
C466        C  0.17358409  0.11578851  0.55001033     0.03800
C467        C  0.14934837  0.14133650  0.55967615    -0.12200
C468        C  0.12079008  0.12428994  0.56690127     0.18700
C469        C  0.11602544  0.08149816  0.56210244    -0.09200
C470        C  0.13998020  0.05602620  0.55193008    -0.02200
H471        H  0.15305091  0.17436385  0.56337301     0.05200
C472        C  0.09642469  0.15099008  0.58129660     0.20700
H473        H  0.13599070  0.02288901  0.54961972     0.10400
C474        C  0.08049110  0.17459015  0.55640472    -0.15600
C475        C  0.05630164  0.19854746  0.56893421     0.03400
C476        C  0.04762219  0.19910533  0.60720816    -0.10900
C477        C  0.06368783  0.17522482  0.63201019    -0.00900
C478        C  0.08814421  0.15169914  0.61941873    -0.06100
H479        H  0.08666202  0.17385820  0.52698971     0.06400
H480        H  0.05759633  0.17552560  0.66138261     0.09800
Br481      Br  0.07740733  0.05623842  0.57108728    -0.05800
Br482      Br  0.21237740  0.14175075  0.54618779    -0.02700
Br483      Br  0.03563996  0.22774513  0.53170385     0.00100
Br484      Br  0.11008181  0.12159338  0.65517805    -0.04300
C485        C  0.99045925  0.30154957  0.70970485    -0.11700
C486        C  0.01575392  0.31342578  0.72919951     0.03800
C487        C  0.01301267  0.34211206  0.75830016    -0.12200
C488        C  0.98532685  0.35984734  0.76825872     0.18700
C489        C  0.46007004  0.34845552  0.74832964    -0.09200
C490        C  0.46276450  0.31923627  0.71956320    -0.02200
H491        H  0.03268048  0.35099085  0.77304108     0.05200
C492        C  0.98388571  0.39099118  0.79871689     0.20700
H493        H  0.44318935  0.31054376  0.70464864     0.10400
C494        C  0.99899899  0.42909187  0.79368543    -0.15600
C495        C  0.00134055  0.45754301  0.82293530     0.03400
C496        C  0.98837790  0.44797081  0.85866122    -0.10900
C497        C  0.97190961  0.41042136  0.86278171    -0.00900
C498        C  0.96988743  0.38203151  0.83355503    -0.06100
H499        H  0.00977320  0.43628738  0.76690277     0.06400
H500        H  0.96164562  0.40178729  0.88949855     0.09800
Br501      Br  0.42188770  0.37353530  0.75798332    -0.05800
Br502      Br  0.05473047  0.29281185  0.71607872    -0.02700
Br503      Br  0.02349545  0.50771181  0.81144018     0.00100
Br504      Br  0.95001300  0.32983882  0.84378745    -0.04300
C505        C  0.30508742  0.21224382  0.90338157    -0.11700
C506        C  0.30247500  0.20550099  0.94189253     0.03800
C507        C  0.32707046  0.19160664  0.96080921    -0.12200
C508        C  0.35405495  0.18169508  0.94161543     0.18700
C509        C  0.35587572  0.18592665  0.90250079    -0.09200
C510        C  0.33210484  0.20342265  0.88419944    -0.02200
H511        H  0.32490961  0.18776376  0.99071033     0.05200
C512        C  0.37841473  0.16334954  0.96295352     0.20700
H513        H  0.33449021  0.20934676  0.85460610     0.10400
C514        C  0.37107463  0.13037444  0.98725025    -0.15600
C515        C  0.39254678  0.11155568  0.00838080     0.03400
C516        C  0.42291755  0.12388804  0.00373926    -0.10900
C517        C  0.43015890  0.15805366  0.98043828    -0.00900
C518        C  0.40808433  0.17871370  0.96119481    -0.06100
H519        H  0.34825335  0.11891706  0.98978869     0.06400
H520        H  0.45308641  0.16894137  0.97734228     0.09800
Br521      Br  0.38835997  0.16441190  0.87203412    -0.05800
Br522      Br  0.26585348  0.21488019  0.96979111    -0.02700
Br523      Br  0.37797986  0.06856392  0.04184045     0.00100
Br524      Br  0.41939147  0.22921136  0.93545125    -0.04300
C525        C  0.07758980  0.09337323  0.97087121    -0.11700
C526        C  0.10676400  0.08069740  0.97844956     0.03800
C527        C  0.13113559  0.10624945  0.96834637    -0.12200
C528        C  0.12691070  0.14451860  0.95086512     0.18700
C529        C  0.09772783  0.15870947  0.94586163    -0.09200
C530        C  0.07323631  0.13319581  0.95611259    -0.02200
H531        H  0.15356133  0.09537282  0.97251505     0.05200
C532        C  0.15309882  0.16611913  0.93353765     0.20700
H533        H  0.05096236  0.14315551  0.94984576     0.10400
C534        C  0.16431045  0.15209706  0.89899653    -0.15600
C535        C  0.18878389  0.17173520  0.88087873     0.03400
C536        C  0.20267189  0.20616376  0.89757669    -0.10900
C537        C  0.19194775  0.21894621  0.93302281    -0.00900
C538        C  0.16717732  0.19959376  0.95077875    -0.06100
H539        H  0.15352837  0.12609909  0.88572611     0.06400
H540        H  0.20266173  0.24453337  0.94685499     0.09800
Br541      Br  0.09054990  0.21086112  0.92199065    -0.05800
Br542      Br  0.11456112  0.02806866  0.00124358    -0.02700
Br543      Br  0.20021365  0.15125218  0.83257458     0.00100
Br544      Br  0.15309221  0.22005178  0.99819986    -0.04300
C545        C  0.99197306  0.20712662  0.71732819    -0.11700
C546        C  0.46436902  0.19577123  0.73483457     0.03800
C547        C  0.46359504  0.16983618  0.76617492    -0.12200
C548        C  0.99009954  0.15530225  0.78072800     0.18700
C549        C  0.01771221  0.16807967  0.76420824    -0.09200
C550        C  0.01845926  0.19332634  0.73245474    -0.02200
H551        H  0.44225317  0.16063404  0.77905088     0.05200
C552        C  0.98863941  0.12666991  0.81299446     0.20700
H553        H  0.03980799  0.20197783  0.71943476     0.10400
C554        C  0.99477403  0.08440113  0.80766630    -0.15600
C555        C  0.99556103  0.05695254  0.83794223     0.03400
C556        C  0.98987892  0.07180106  0.87449263    -0.10900
C557        C  0.98240191  0.11396232  0.87928576    -0.00900
C558        C  0.98205199  0.14128082  0.84906555    -0.06100
H559        H  0.49953416  0.07289795  0.77981597     0.06400
H560        H  0.97835729  0.12647835  0.90692489     0.09800
Br561      Br  0.05486217  0.15250161  0.78465556    -0.05800
Br562      Br  0.42713701  0.21415842  0.71680582    -0.02700
Br563      Br  0.50418693  0.99983549  0.82717046     0.00100
Br564      Br  0.97494930  0.19901264  0.85859504    -0.04300
C565        C  0.42157219  0.92866955  0.04610952    -0.11700
C566        C  0.42584954  0.88625680  0.05450525     0.03800
C567        C  0.40104980  0.85994135  0.06039699    -0.12200
C568        C  0.37200049  0.87509673  0.05799336     0.18700
C569        C  0.36773684  0.91653539  0.04728960    -0.09200
C570        C  0.39242292  0.94290973  0.04133799    -0.02200
H571        H  0.40436209  0.82810920  0.06907402     0.05200
C572        C  0.34675883  0.84957949  0.07283834     0.20700
H573        H  0.38874365  0.97519478  0.03458991     0.10400
C574        C  0.34037216  0.85021886  0.11121480    -0.15600
C575        C  0.31671382  0.82681235  0.12703496     0.03400
C576        C  0.29882498  0.80226089  0.10428856    -0.10900
C577        C  0.30555905  0.80129099  0.06577368    -0.00900
C578        C  0.32926264  0.82486463  0.04994089    -0.06100
H579        H  0.35408278  0.86886868  0.12900352     0.06400
H580        H  0.29212388  0.78247975  0.04790223     0.09800
Br581      Br  0.32852733  0.93918334  0.04360866    -0.05800
Br582      Br  0.46439493  0.86337071  0.06308565    -0.02700
Br583      Br  0.31152680  0.82764766  0.17996467     0.00100
Br584      Br  0.33708288  0.82248353  0.99724082    -0.04300
C585        C  0.07455267  0.89926989  0.01740042    -0.11700
C586        C  0.09239830  0.87094976  0.99703843     0.03800
C587        C  0.11535142  0.85018837  0.01453491    -0.12200
C588        C  0.12106482  0.85802258  0.05197641     0.18700
C589        C  0.10368194  0.88711323  0.07195947    -0.09200
C590        C  0.08039788  0.90690675  0.05479924    -0.02200
H591        H  0.12891857  0.82813387  0.99888931     0.05200
C592        C  0.14604050  0.83712698  0.06944074     0.20700
H593        H  0.06761015  0.92974095  0.07039827     0.10400
C594        C  0.17537491  0.84844102  0.05853397    -0.15600
C595        C  0.19968986  0.82988773  0.07489765     0.03400
C596        C  0.19474427  0.79936932  0.10269768    -0.10900
C597        C  0.16521876  0.78890018  0.11413636    -0.00900
C598        C  0.14099429  0.80701375  0.09743710    -0.06100
H599        H  0.17933813  0.87170356  0.03702443     0.06400
H600        H  0.16103259  0.76555598  0.13552326     0.09800
Br601      Br  0.11222002  0.90302503  0.12184842    -0.05800
Br602      Br  0.08582412  0.85921352  0.94583461    -0.02700
Br603      Br  0.23871375  0.84588005  0.05634151     0.00100
Br604      Br  0.10157177  0.78817803  0.11256665    -0.04300
C605        C  0.51032014  0.94954716  0.14347931    -0.11700
C606        C  0.50741833  0.96416366  0.18041228     0.03800
C607        C  0.50978455  0.93629529  0.21026617    -0.12200
C608        C  0.51507946  0.89387175  0.20402257     0.18700
C609        C  0.01867230  0.87951748  0.16729721    -0.09200
C610        C  0.01675892  0.90725719  0.13762444    -0.02200
H611        H  0.50693315  0.94760082  0.23849249     0.05200
C612        C  0.51374728  0.86421958  0.23565210     0.20700
H613        H  0.01878274  0.89502480  0.10964521     0.10400
C614        C  0.48586136  0.85490467  0.25282884    -0.15600
C615        C  0.48298890  0.82488461  0.28092431     0.03400
C616        C  0.50830494  0.80342495  0.29233273    -0.10900
C617        C  0.03631792  0.81297996  0.27544229    -0.00900
C618        C  0.03921698  0.84327555  0.24738267    -0.06100
H619        H  0.46610800  0.87053083  0.24377892     0.06400
H620        H  0.05601376  0.79719307  0.28445742     0.09800
Br621      Br  0.02336147  0.82159375  0.15609554    -0.05800
Br622      Br  0.50102882  0.02164601  0.19183698    -0.02700
Br623      Br  0.44372757  0.81334397  0.30136797     0.00100
Br624      Br  0.07834402  0.85577062  0.22647613    -0.04300
O625        O  0.94160500  0.07492580  0.04666979    -0.80600
O626        O  0.52589127  0.92530377  0.01720844    -0.65300
O627        O  0.99612031  0.03215021  0.03985709    -1.11900
C628        C  0.49508508  0.04672927  0.90839213     1.06300
O629        O  0.55783946  0.94762310  0.97302291    -0.78500
O630        O  0.55827858  0.02833124  0.95575709    -0.66100
Ni631      Ni  0.96492882  0.03921609  0.07737307     1.34900
C632        C  0.55279656  0.06302344  0.97100802     0.85000
O633        O  0.51746445  0.96521874  0.07988706    -0.79000
O634        O  0.98438971  0.00362403  0.11255336    -0.89300
C635        C  0.55115068  0.92394449  0.00056762     0.84600
O636        O  0.94033811  0.99408922  0.06275908    -0.67500
O637        O  0.51439413  0.01776454  0.90671097    -0.86800
C638        C  0.94614427  0.95954860  0.04734403     0.85400
C639        C  0.00414891  0.97529026  0.11028454     1.07000
H640        H  0.48612195  0.97485920  0.97134882     0.38800
O641        O  0.50285005  0.99108800  0.97908486    -1.09400
O642        O  0.52708917  0.07328171  0.98413341    -0.66100
Ni643      Ni  0.98864332  0.04553674  0.98923900     1.26300
O644        O  0.97195220  0.95017076  0.03420494    -0.66300
O645        O  0.98168344  0.05786080  0.93854849    -0.78600
C646        C  0.94723611  0.09872330  0.01893288     0.84800
O647        O  0.97233776  0.09804706  0.00156873    -0.65800
Ni648      Ni  0.53406568  0.98280194  0.94193429     1.27400
Ni649      Ni  0.51026775  0.97782518  0.02950004     1.26100
H650        H  0.01286980  0.04850521  0.04763904     0.39400
C651        C  0.99533902  0.20683669  0.64418027     0.45800
H652        H  0.49595173  0.17261634  0.64786102    -0.03300
C653        C  0.99397384  0.28737696  0.63711656     0.45800
H654        H  0.99341128  0.32174705  0.63456880    -0.03300
C655        C  0.99359203  0.22996397  0.68144658    -0.16900
C656        C  0.52279790  0.22532674  0.62240392    -0.16700
C657        C  0.96818071  0.22219772  0.62345169    -0.17100
C658        C  0.49276717  0.27233882  0.67785764    -0.17100
C659        C  0.52228971  0.26791289  0.61923041    -0.16600
C660        C  0.96799378  0.26472743  0.61871804    -0.16900
O661        O  0.55656219  0.57218055  0.95831421    -0.80600
O662        O  0.97405978  0.41901516  0.98841791    -0.65300
O663        O  0.50308212  0.52691174  0.96402338    -1.11900
C664        C  0.00542689  0.54159362  0.09616383     1.06300
O665        O  0.94338007  0.44433451  0.03242844    -0.78500
O666        O  0.94482555  0.52213395  0.05739255    -0.66100
Ni667      Ni  0.53258597  0.53843529  0.92616586     1.34900
C668        C  0.94663645  0.55524307  0.03813280     0.85000
O669        O  0.98382530  0.45828599  0.92392366    -0.79000
O670        O  0.51174741  0.50452409  0.89077441    -0.89300
C671        C  0.94858808  0.42013184  0.00514063     0.84600
O672        O  0.55763251  0.49300371  0.93593958    -0.67500
O673        O  0.99219501  0.50629357  0.09886034    -0.86800
C674        C  0.55417707  0.45752502  0.95109675     0.85400
C675        C  0.49462452  0.47244097  0.89300362     1.07000
H676        H  0.01613285  0.47254211  0.03181041     0.38800
O677        O  0.99826860  0.48660726  0.02489056    -1.09400
O678        O  0.96968362  0.56493423  0.01793158    -0.66100
Ni679      Ni  0.50955879  0.54242055  0.01431707     1.26300
O680        O  0.52987062  0.44635151  0.96840348    -0.66300
O681        O  0.51446145  0.55757861  0.06519143    -0.78600
C682        C  0.55013775  0.59633838  0.98548280     0.84800
O683        O  0.52418544  0.59591076  0.00069635    -0.65800
Ni684      Ni  0.96941450  0.47512198  0.06395427     1.27400
Ni685      Ni  0.99059550  0.47170624  0.97462486     1.26100
H686        H  0.48559245  0.54120702  0.95616322     0.39400
C687        C  0.00286617  0.78687355  0.36416281     0.45800
H688        H  0.50154254  0.82114221  0.36716308    -0.03300
C689        C  0.00661570  0.70660521  0.35616281     0.45800
H690        H  0.00796004  0.67244337  0.35249620    -0.03300
C691        C  0.00625955  0.77287600  0.32330584    -0.16900
C692        C  0.52914432  0.76739038  0.38379629    -0.16700
C693        C  0.97546268  0.76349080  0.38062705    -0.17100
C694        C  0.50869885  0.73061604  0.31900125    -0.17100
C695        C  0.53168981  0.72517540  0.37903638    -0.16600
C696        C  0.97736775  0.72117764  0.37619535    -0.16900
O697        O  0.80825166  0.05531025  0.47325133    -0.80600
O698        O  0.72375430  0.90509989  0.49708374    -0.65300
O699        O  0.75345194  0.01298541  0.47433587    -1.11900
C700        C  0.74976802  0.02841519  0.60627576     1.06300
O701        O  0.69118374  0.93037901  0.53864172    -0.78500
O702        O  0.69058325  0.00896717  0.56243187    -0.66100
Ni703      Ni  0.78477248  0.02441416  0.43856386     1.34900
C704        C  0.69422002  0.04275319  0.54442625     0.85000
O705        O  0.73726499  0.94405071  0.43296587    -0.79000
O706        O  0.76462987  0.99284760  0.40139920    -0.89300
C707        C  0.69769659  0.90541294  0.51224987     0.84600
O708        O  0.80818818  0.97729646  0.44796904    -0.67500
O709        O  0.73523312  0.99411384  0.60828546    -0.86800
C710        C  0.80448702  0.94342963  0.46563052     0.85400
C711        C  0.74865968  0.95961811  0.40285115     1.07000
H712        H  0.76274941  0.95909707  0.54381104     0.38800
O713        O  0.74544881  0.97323155  0.53516227    -1.09400
O714        O  0.71832660  0.05227820  0.52624164    -0.66100
Ni715      Ni  0.75777781  0.02857477  0.52493626     1.26300
O716        O  0.77991720  0.93317205  0.48262984    -0.66300
O717        O  0.76079632  0.04380939  0.57601496    -0.78600
C718        C  0.80031412  0.07983547  0.49941950     0.84800
O719        O  0.77350210  0.08131056  0.51156925    -0.65800
Ni720      Ni  0.71479431  0.96220746  0.57186381     1.27400
Ni721      Ni  0.74057621  0.95791780  0.48435043     1.26100
H722        H  0.73636603  0.02732416  0.46526315     0.39400
C723        C  0.74591799  0.71284885  0.13618458     0.45800
H724        H  0.74642792  0.67840860  0.13443027    -0.03300
C725        C  0.74533876  0.79364734  0.13911547     0.45800
H726        H  0.74550148  0.82810862  0.13983066    -0.03300
C727        C  0.74349653  0.72990705  0.17628034    -0.16900
C728        C  0.77391323  0.73360701  0.11832432    -0.16700
C729        C  0.71971002  0.73198325  0.11640189    -0.17100
C730        C  0.74275452  0.77289898  0.17797889    -0.17100
C731        C  0.77393604  0.77599171  0.12017413    -0.16600
C732        C  0.71942944  0.77465749  0.11774825    -0.16900
O733        O  0.69700800  0.56421885  0.52524411    -0.80600
O734        O  0.77482242  0.40357996  0.50239042    -0.65300
O735        O  0.74864780  0.51360157  0.52109699    -1.11900
C736        C  0.75239445  0.52598071  0.38953640     1.06300
O737        O  0.80782986  0.42339834  0.45870761    -0.78500
O738        O  0.81309321  0.50285424  0.44155925    -0.66100
Ni739      Ni  0.71717063  0.52532434  0.55694377     1.34900
C740        C  0.80809280  0.53823003  0.45562769     0.85000
O741        O  0.76616919  0.44588757  0.56409334    -0.79000
O742        O  0.73256155  0.48702995  0.59307741    -0.89300
C743        C  0.80056236  0.40109873  0.48692838     0.84600
O744        O  0.69111951  0.48345320  0.54073432    -0.67500
O745        O  0.77113660  0.49641972  0.38928898    -0.86800
C746        C  0.69481399  0.44700419  0.52854148     0.85400
C747        C  0.75110804  0.45713764  0.59291340     1.07000
H748        H  0.73777258  0.45482310  0.45334098     0.38800
O749        O  0.75486412  0.47017084  0.46157546    -1.09400
O750        O  0.78222224  0.55043208  0.46603813    -0.66100
Ni751      Ni  0.74285332  0.52597982  0.46987351     1.26300
O752        O  0.72039298  0.43331590  0.51758926    -0.66300
O753        O  0.73741781  0.53735526  0.41842695    -0.78600
C754        C  0.70495527  0.58619580  0.49695503     0.84800
O755        O  0.72971979  0.58047629  0.48007450    -0.65800
Ni756      Ni  0.78717900  0.45980811  0.42606827     1.27400
Ni757      Ni  0.76044753  0.45756841  0.51285942     1.26100
H758        H  0.76593048  0.52862449  0.52908248     0.39400
C759        C  0.75573908  0.29214412  0.85771394     0.45800
H760        H  0.75564850  0.32662016  0.85659186    -0.03300
C761        C  0.75646976  0.21155656  0.86285283     0.45800
H762        H  0.75639731  0.17739926  0.86640136    -0.03300
C763        C  0.75998002  0.27049716  0.81951220    -0.16900
C764        C  0.78075513  0.27592875  0.88110539    -0.16700
C765        C  0.72679230  0.27323752  0.87504226    -0.17100
C766        C  0.75997267  0.22732066  0.82212491    -0.17100
C767        C  0.78143276  0.23371366  0.88357828    -0.16600
C768        C  0.72719843  0.23074971  0.87829438    -0.16900
C769        C  0.76090171  0.29658736  0.78475492    -0.11700
C770        C  0.78110526  0.29088547  0.75381643     0.03800
C771        C  0.78019513  0.31760072  0.72290711    -0.12200
C772        C  0.76130116  0.35221216  0.72312388     0.18700
C773        C  0.74275007  0.35939523  0.75491751    -0.09200
C774        C  0.74178717  0.33099985  0.78429095    -0.02200
H775        H  0.79476480  0.31172905  0.69878244     0.05200
C776        C  0.75974692  0.37937096  0.68961951     0.20700
H777        H  0.72615748  0.33663203  0.80741499     0.10400
C778        C  0.73186828  0.38521786  0.67410068    -0.15600
C779        C  0.72863654  0.41180294  0.64382495     0.03400
C780        C  0.75383677  0.43219169  0.62721475    -0.10900
C781        C  0.78200427  0.42527566  0.64171786    -0.00900
C782        C  0.78503868  0.39978943  0.67310742    -0.06100
H783        H  0.71232048  0.36908914  0.68584277     0.06400
H784        H  0.80161769  0.44030376  0.62897499     0.09800
Br785      Br  0.71981884  0.40920023  0.76115479    -0.05800
Br786      Br  0.81218914  0.25023328  0.75235987    -0.02700
Br787      Br  0.68930368  0.41712377  0.62534044     0.00100
Br788      Br  0.82377501  0.39589343  0.69352331    -0.04300
C789        C  0.74415443  0.70056605  0.20846683    -0.11700
C790        C  0.72215069  0.69950322  0.23779191     0.03800
C791        C  0.72374061  0.66966795  0.26617248    -0.12200
C792        C  0.74646623  0.63991612  0.26551633     0.18700
C793        C  0.76750694  0.63977069  0.23534314    -0.09200
C794        C  0.76648423  0.67020792  0.20766201    -0.02200
H795        H  0.70697659  0.66941518  0.28873440     0.05200
C796        C  0.74813406  0.60965859  0.29664535     0.20700
H797        H  0.78307755  0.66969979  0.18493550     0.10400
C798        C  0.72507170  0.58019897  0.30325632    -0.15600
C799        C  0.72610858  0.55177227  0.33291699     0.03400
C800        C  0.75080342  0.55199325  0.35584675    -0.10900
C801        C  0.77374479  0.58139121  0.34919914    -0.00900
C802        C  0.77230186  0.61056620  0.32050055    -0.06100
H803        H  0.70613885  0.57955730  0.28548913     0.06400
H804        H  0.79229250  0.58287534  0.36758363     0.09800
Br805      Br  0.79712415  0.59732852  0.22949933    -0.05800
Br806      Br  0.68789146  0.73487073  0.23895972    -0.02700
Br807      Br  0.69351081  0.51347172  0.34134078     0.00100
Br808      Br  0.80263020  0.65317726  0.31706263    -0.04300
C809        C  0.74542928  0.93553368  0.36822719    -0.11700
C810        C  0.71938623  0.91236922  0.36151951     0.03800
C811        C  0.71916288  0.88399801  0.33208406    -0.12200
C812        C  0.74469235  0.87836767  0.30875772     0.18700
C813        C  0.77021409  0.90321164  0.31415293    -0.09200
C814        C  0.77048430  0.93123501  0.34380328    -0.02200
H815        H  0.69897672  0.86632968  0.32729483     0.05200
C816        C  0.74335077  0.84929914  0.27697558     0.20700
H817        H  0.79073570  0.94881600  0.34842916     0.10400
C818        C  0.72420098  0.85850119  0.24851970    -0.15200
C819        C  0.72287817  0.83341975  0.21704835     0.03400
C820        C  0.74162806  0.79835689  0.21289914    -0.10900
C821        C  0.76021445  0.78850899  0.24225474    -0.00900
C822        C  0.76075875  0.81313826  0.27431678    -0.06100
H823        H  0.71007904  0.88558550  0.25085287     0.06400
H824        H  0.77487315  0.76204971  0.24007402     0.09800
Br825      Br  0.80491412  0.90092650  0.28115323    -0.05800
Br826      Br  0.68326609  0.92036551  0.39064688    -0.02700
Br827      Br  0.69298356  0.84807247  0.18303035     0.00100
Br828      Br  0.78481441  0.79547304  0.31418026    -0.04300
C829        C  0.75204716  0.05368364  0.64020419    -0.11700
C830        C  0.72649311  0.06163662  0.66338791     0.03800
C831        C  0.72789630  0.09121569  0.69162464    -0.12200
C832        C  0.75442625  0.11308606  0.69758123     0.18700
C833        C  0.78023393  0.10410294  0.67541795    -0.09200
C834        C  0.77874245  0.07518985  0.64658709    -0.02200
H835        H  0.70812483  0.09730308  0.70902378     0.05200
C836        C  0.75529584  0.14285127  0.72877476     0.20700
H837        H  0.79842759  0.06979406  0.62883871     0.10400
C838        C  0.77266752  0.13306615  0.75875561    -0.15600
C839        C  0.77485207  0.15984244  0.78888523     0.03400
C840        C  0.75884197  0.19773384  0.78999103    -0.10900
C841        C  0.74027854  0.20651347  0.76029766    -0.00900
C842        C  0.73873386  0.17980872  0.72969857    -0.06100
H843        H  0.78499451  0.10425387  0.75847218     0.06400
H844        H  0.72672191  0.23414463  0.76086381     0.09800
Br845      Br  0.81788233  0.13100961  0.68298370    -0.05800
Br846      Br  0.68829902  0.03580631  0.65630996    -0.02700
Br847      Br  0.80145329  0.14159079  0.82558937     0.00100
Br848      Br  0.71443191  0.19569496  0.68946673    -0.04300
C849        C  0.55805046  0.70148300  0.39166623    -0.11700
C850        C  0.55548348  0.66471628  0.41303409     0.03800
C851        C  0.58082679  0.64828190  0.42899885    -0.12200
C852        C  0.60874147  0.66863647  0.42547431     0.18700
C853        C  0.61158596  0.70380300  0.40200611    -0.09200
C854        C  0.58666425  0.71880821  0.38461957    -0.02200
H855        H  0.57848612  0.62006036  0.44536251     0.05200
C856        C  0.63447265  0.65211603  0.44568466     0.20700
H857        H  0.58945425  0.74570733  0.36663306     0.10400
C858        C  0.66167803  0.64539409  0.42615020    -0.15600
C859        C  0.68638482  0.62996338  0.44382845     0.03400
C860        C  0.68314534  0.61515642  0.48091325    -0.10900
C861        C  0.65613515  0.62291890  0.50087291    -0.00900
C862        C  0.63233156  0.64237029  0.48402957    -0.06100
H863        H  0.66390982  0.65230365  0.39671896     0.06400
H864        H  0.65327900  0.61332960  0.52968085     0.09800
Br865      Br  0.64795893  0.73530356  0.39433595    -0.05800
Br866      Br  0.51809090  0.63738905  0.42461644    -0.02700
Br867      Br  0.72352607  0.63231978  0.41529370     0.00100
Br868      Br  0.59789032  0.65548752  0.51517858    -0.04300
C869        C  0.83332601  0.56767502  0.45700532    -0.11700
C870        C  0.86221485  0.55473919  0.46574211     0.03800
C871        C  0.88676721  0.58099508  0.45807810    -0.12200
C872        C  0.88283846  0.62004239  0.44183103     0.18700
C873        C  0.85379166  0.63417899  0.43591402    -0.09200
C874        C  0.82927191  0.60817983  0.44385761    -0.02200
H875        H  0.90906611  0.57010268  0.46298890     0.05200
C876        C  0.90896312  0.64307374  0.42612025     0.20700
H877        H  0.80720963  0.61856299  0.43706328     0.10400
C878        C  0.91307589  0.64463980  0.38734927    -0.15600
C879        C  0.93588284  0.66874694  0.37061564     0.03400
C880        C  0.95495315  0.69196040  0.39281465    -0.10900
C881        C  0.95145838  0.68938451  0.43171991    -0.00900
C882        C  0.92889138  0.66457598  0.44850420    -0.06100
H883        H  0.89787561  0.62785125  0.37000792     0.06400
H884        H  0.96617558  0.70706054  0.44900304     0.09800
Br885      Br  0.84674365  0.68741983  0.41412176    -0.05800
Br886      Br  0.86934991  0.50147205  0.48754314    -0.02700
Br887      Br  0.93815977  0.67136706  0.31753444     0.00100
Br888      Br  0.92554036  0.66195362  0.50171549    -0.04300
C889        C  0.82974498  0.91399352  0.46332615    -0.11700
C890        C  0.85907650  0.92802675  0.45360307     0.03800
C891        C  0.88069747  0.89974941  0.44163196    -0.12200
C892        C  0.87469414  0.85690294  0.44147063     0.18700
C893        C  0.84666799  0.84247080  0.45578921    -0.09200
C894        C  0.82418957  0.87095960  0.46552626    -0.02200
H895        H  0.90256122  0.91143173  0.43250631     0.05200
C896        C  0.89901222  0.82879851  0.42823427     0.20700
H897        H  0.80218790  0.85936979  0.47410930     0.10400
C898        C  0.92726112  0.83440048  0.44279786    -0.15600
C899        C  0.95232487  0.81445736  0.42751146     0.03400
C900        C  0.94927660  0.78508143  0.39875690    -0.10900
C901        C  0.92064326  0.77796146  0.38527541    -0.00900
C902        C  0.89597783  0.80095403  0.39836734    -0.06100
H903        H  0.93013989  0.85636043  0.46517315     0.06400
H904        H  0.91786273  0.75669516  0.36240166     0.09800
Br905      Br  0.83856501  0.78472700  0.46497484    -0.05800
Br906      Br  0.87184913  0.98509452  0.45743986    -0.02700
Br907      Br  0.98949127  0.83125330  0.44708520     0.00100
Br908      Br  0.86034905  0.79775389  0.37063768    -0.04300
C909        C  0.67275655  0.88150517  0.49629197    -0.11700
C910        C  0.67680992  0.85180683  0.46768879     0.03800
C911        C  0.65192786  0.83623169  0.44974581    -0.12200
C912        C  0.62294145  0.84874572  0.46028805     0.18700
C913        C  0.61868599  0.87648544  0.48988881    -0.09200
C914        C  0.64334140  0.89258224  0.50751012    -0.02200
H915        H  0.65524825  0.81445525  0.42725483     0.05200
C916        C  0.59722920  0.83088666  0.44150325     0.20700
H917        H  0.63926421  0.91513507  0.52934838     0.10400
C918        C  0.57957682  0.80075721  0.46026230    -0.15600
C919        C  0.55575481  0.78179638  0.44297719     0.03400
C920        C  0.54993229  0.79223425  0.40581180    -0.10900
C921        C  0.56642707  0.82407458  0.38791324    -0.00900
C922        C  0.58992102  0.84349678  0.40552634    -0.06100
H923        H  0.58447353  0.79185261  0.48840411     0.06400
H924        H  0.56180015  0.83265549  0.35960250     0.09800
Br925      Br  0.57965591  0.89492843  0.50598690    -0.05800
Br926      Br  0.71517851  0.83073964  0.45166044    -0.02700
Br927      Br  0.53148676  0.74297761  0.47183030     0.00100
Br928      Br  0.61081022  0.88725096  0.37931718    -0.04300
C929        C  0.57964523  0.42811014  0.94514369    -0.11700
C930        C  0.58181025  0.38898045  0.96297927     0.03800
C931        C  0.60527982  0.36202253  0.95264636    -0.12200
C932        C  0.62683985  0.37338562  0.92494793     0.18700
C933        C  0.62512402  0.41234353  0.90778558    -0.09200
C934        C  0.60197285  0.43909804  0.91787463    -0.02200
H935        H  0.60679271  0.33214434  0.96634027     0.05200
C936        C  0.65162184  0.34525823  0.91428314     0.20700
H937        H  0.60129419  0.46853750  0.90332227     0.10400
C938        C  0.64881917  0.31875402  0.88371772    -0.15600
C939        C  0.67322904  0.29575588  0.86999716     0.03400
C940        C  0.70093407  0.29906475  0.88706502    -0.10900
C941        C  0.70375108  0.32584418  0.91736546    -0.00900
C942        C  0.67931761  0.34863762  0.93115543    -0.06100
H943        H  0.62782626  0.31688157  0.86988788     0.06400
H944        H  0.72489928  0.32849741  0.93071409     0.09800
Br945      Br  0.65391615  0.43025908  0.86988787    -0.05800
Br946      Br  0.55440206  0.37071309  0.00215239    -0.02700
Br947      Br  0.66817528  0.26228522  0.82662170     0.00100
Br948      Br  0.68478389  0.38474773  0.97261590    -0.04300
C949        C  0.80226230  0.30321273  0.89984983    -0.11700
C950        C  0.82985946  0.31415062  0.88238146     0.03800
C951        C  0.85174454  0.33395122  0.90258204    -0.12200
C952        C  0.84656979  0.34353436  0.94022896     0.18700
C953        C  0.81832717  0.33474547  0.95730489    -0.09200
C954        C  0.79649163  0.31436105  0.93709830    -0.02200
H955        H  0.87316121  0.34141603  0.88896490     0.05200
C956        C  0.87109346  0.36356470  0.96008996     0.20700
H957        H  0.77517748  0.30648214  0.95067931     0.10400
C958        C  0.88044430  0.40351118  0.94893249    -0.15600
C959        C  0.90577223  0.42187884  0.96342236     0.03400
C960        C  0.92281578  0.39974321  0.98872509    -0.10900
C961        C  0.91319660  0.36017610  0.00070600    -0.00900
C962        C  0.88739108  0.34201251  0.98666468    -0.06100
H963        H  0.86803452  0.42037242  0.92864054     0.06400
H964        H  0.92566215  0.34352695  0.02105950     0.09800
Br965      Br  0.80839111  0.35061762  0.00758071    -0.05800
Br966      Br  0.83911415  0.30209774  0.83129069    -0.02700
Br967      Br  0.91572746  0.47783774  0.94853770     0.00100
Br968      Br  0.87568188  0.28757565  0.00394513    -0.04300
C969        C  0.69741126  0.70718976  0.09598977    -0.11700
C970        C  0.67925579  0.67612388  0.11348352     0.03800
C971        C  0.65539119  0.65878971  0.09476086    -0.12200
C972        C  0.64929883  0.67184598  0.05875347     0.18700
C973        C  0.66771937  0.70193829  0.04090262    -0.09200
C974        C  0.69178149  0.71877212  0.05924993    -0.02200
H975        H  0.64124804  0.63541928  0.10849995     0.05200
C976        C  0.62391858  0.65336234  0.03981620     0.20700
H977        H  0.70541434  0.74253365  0.04530717     0.10400
C978        C  0.59493606  0.66719635  0.04834286    -0.15600
C979        C  0.57043573  0.65055759  0.03028355     0.03400
C980        C  0.57491001  0.61946455  0.00282615    -0.10900
C981        C  0.60432999  0.60631697  0.99435118    -0.00900
C982        C  0.62855137  0.62262043  0.01277549    -0.06100
H983        H  0.59140460  0.69113437  0.06912386     0.06400
H984        H  0.60863368  0.58201366  0.97415313     0.09800
Br985      Br  0.65980234  0.72263093  0.99230336    -0.05800
Br986      Br  0.68423287  0.65771413  0.16337809    -0.02700
Br987      Br  0.53209186  0.67260543  0.04449373     0.00100
Br988      Br  0.66754461  0.60080827  0.00123819    -0.04300
C989        C  0.92054977  0.58349490  0.04124258    -0.11700
C990        C  0.92256895  0.62691238  0.03476387     0.03800
C991        C  0.89844809  0.65238637  0.04509611    -0.12200
C992        C  0.87209203  0.63541752  0.06127551     0.18700
C993        C  0.86924025  0.59222306  0.06551356    -0.09200
C994        C  0.89320898  0.56676409  0.05551940    -0.02200
H995        H  0.90047894  0.68571934  0.04129741     0.05200
C996        C  0.84801935  0.66297768  0.07491980     0.20700
H997        H  0.89064432  0.53363124  0.06018021     0.10400
C998        C  0.82301851  0.66849958  0.05341810    -0.15600
C999        C  0.79870071  0.69155234  0.06702059     0.03400
C1000       C  0.79929370  0.70946948  0.10263313    -0.10900
C1001       C  0.82462344  0.70478636  0.12375879    -0.00900
C1002       C  0.84888351  0.68155971  0.11021583    -0.06100
H1003       H  0.82228043  0.65430147  0.02621312     0.06400
H1004       H  0.82530651  0.71876204  0.15106736     0.09800
Br1005     Br  0.83355650  0.56680971  0.08686128    -0.05800
Br1006     Br  0.95751263  0.65425628  0.01372241    -0.02700
Br1007     Br  0.76569926  0.69829013  0.03552173     0.00100
Br1008     Br  0.88220682  0.67462460  0.14131733    -0.04300
C1009       C  0.00872199  0.56714210  0.13016049    -0.11700
C1010       C  0.98631869  0.56751548  0.15915240     0.03800
C1011       C  0.98784961  0.59656125  0.18791492    -0.12200
C1012       C  0.01075574  0.62652982  0.18810644     0.18700
C1013       C  0.53309881  0.62630766  0.15940162    -0.09200
C1014       C  0.53202498  0.59675764  0.13096564    -0.02200
H1015       H  0.97056789  0.59646633  0.20987793     0.05200
C1016       C  0.01138752  0.65679540  0.21914420     0.20700
H1017       H  0.54899636  0.59788500  0.10864823     0.10400
C1018       C  0.53492196  0.65528909  0.24344741    -0.15600
C1019       C  0.53549023  0.68115669  0.27450666     0.03400
C1020       C  0.01177809  0.70868357  0.28255071    -0.10900
C1021       C  0.98903482  0.71189526  0.25700165    -0.00900
C1022       C  0.98857622  0.68609379  0.22565441    -0.06100
H1023       H  0.55291595  0.63353268  0.23835495     0.06400
H1024       H  0.97082367  0.73319272  0.26229423     0.09800
Br1025     Br  0.56432045  0.66760929  0.15634705    -0.05800
Br1026     Br  0.95108336  0.53287596  0.15942182    -0.02700
Br1027     Br  0.57040426  0.67893743  0.30300315     0.00100
Br1028     Br  0.95638477  0.69194864  0.19262662    -0.04300
C1029       C  0.54753946  0.29304131  0.60241036    -0.11700
C1030       C  0.54358218  0.32170151  0.57333101     0.03800
C1031       C  0.56836287  0.34159392  0.55623772    -0.12200
C1032       C  0.59728298  0.33540324  0.56861734     0.18700
C1033       C  0.60112327  0.30848928  0.59901587    -0.09200
C1034       C  0.57647229  0.28705476  0.61503634    -0.02200
H1035       H  0.56494354  0.36312596  0.53363888     0.05200
C1036       C  0.62174496  0.36266251  0.55331668     0.20700
H1037       H  0.57984010  0.26619880  0.63811037     0.10400
C1038       C  0.61744215  0.40555005  0.55525256    -0.15600
C1039       C  0.63969027  0.43354733  0.54336368     0.03400
C1040       C  0.66817594  0.41880708  0.53088049    -0.10900
C1041       C  0.67172475  0.37562235  0.52631191    -0.00900
C1042       C  0.64852049  0.34764532  0.53658634    -0.06100
H1043       H  0.59650499  0.41753594  0.56668536     0.06400
H1044       H  0.69282866  0.36339952  0.51574456     0.09800
Br1045     Br  0.63869764  0.30274463  0.62221673    -0.05800
Br1046     Br  0.50541553  0.33468411  0.55447563    -0.02700
Br1047     Br  0.62849888  0.49118335  0.54582361     0.00100
Br1048     Br  0.65401404  0.28972677  0.52605270    -0.04300
C1049       C  0.94503072  0.28733760  0.59793735    -0.11700
C1050       C  0.93778394  0.27630583  0.56131502     0.03800
C1051       C  0.91437418  0.29582160  0.54427434    -0.12200
C1052       C  0.89787062  0.32660498  0.56262700     0.18700
C1053       C  0.90597417  0.33957753  0.59811352    -0.09200
C1054       C  0.92945927  0.31996921  0.61550185    -0.02200
H1055       H  0.90908645  0.28715934  0.51622078     0.05200
C1056       C  0.87284796  0.34518986  0.54337183     0.20700
H1057       H  0.93523039  0.32984263  0.64299050     0.10400
C1058       C  0.84338435  0.33439942  0.55430602    -0.15600
C1059       C  0.81919930  0.35012887  0.53533959     0.03400
C1060       C  0.82449617  0.37720368  0.50460223    -0.10900
C1061       C  0.85433586  0.38633519  0.49312345    -0.00900
C1062       C  0.87825405  0.37095442  0.51230277    -0.06100
H1063       H  0.83922674  0.31347757  0.57763227     0.06400
H1064       H  0.85934026  0.40693278  0.46981668     0.09800
Br1065     Br  0.88643959  0.38498047  0.62285333    -0.05800
Br1066     Br  0.95945591  0.23689671  0.53148140    -0.02700
Br1067     Br  0.77997017  0.33246027  0.55266674     0.00100
Br1068     Br  0.91799677  0.38747799  0.49601591    -0.04300
C1069       C  0.94284591  0.19460003  0.61321835    -0.11700
C1070       C  0.94698476  0.15847315  0.59147947     0.03800
C1071       C  0.92225721  0.13889665  0.57633065    -0.12200
C1072       C  0.89340849  0.15464054  0.58243990     0.18700
C1073       C  0.88896719  0.18816249  0.60687298    -0.09200
C1074       C  0.91352085  0.20745302  0.62228490    -0.02200
H1075       H  0.92572343  0.11257153  0.55802135     0.05200
C1076       C  0.86861627  0.13660441  0.56184313     0.20700
H1077       H  0.90971392  0.23419737  0.63993646     0.10400
C1078       C  0.86002157  0.09526331  0.56875789    -0.15600
C1079       C  0.83786844  0.07646646  0.54823907     0.03400
C1080       C  0.82347045  0.09950264  0.52097749    -0.10900
C1081       C  0.83199655  0.14070321  0.51388939    -0.00900
C1082       C  0.85480438  0.15915467  0.53366529    -0.06100
H1083       H  0.87094801  0.07739608  0.58973550     0.06400
H1084       H  0.82145489  0.15814166  0.49232107     0.09800
Br1085     Br  0.85004495  0.20990833  0.61890676    -0.05800
Br1086     Br  0.98560114  0.13734072  0.57705996    -0.02700
Br1087     Br  0.82879934  0.01880512  0.55747412     0.00100
Br1088     Br  0.86761139  0.21399682  0.51920167    -0.04300
C1089       C  0.66910732  0.07235868  0.54676281    -0.11700
C1090       C  0.67358184  0.11578841  0.55000778     0.03800
C1091       C  0.64934642  0.14133731  0.55967273    -0.12200
C1092       C  0.62078853  0.12429113  0.56690198     0.18700
C1093       C  0.61602374  0.08149877  0.56210745    -0.09200
C1094       C  0.63997813  0.05602590  0.55193609    -0.02200
H1095       H  0.65304899  0.17436523  0.56336584     0.05200
C1096       C  0.59642377  0.15099231  0.58129717     0.20700
H1097       H  0.63598853  0.02288838  0.54962923     0.10400
C1098       C  0.58049107  0.17459355  0.55640526    -0.15600
C1099       C  0.55630142  0.19855063  0.56893445     0.03400
C1100       C  0.54762118  0.19910746  0.60720819    -0.10900
C1101       C  0.56368605  0.17522599  0.63201023    -0.00900
C1102       C  0.58814244  0.15170031  0.61941908    -0.06100
H1103       H  0.58666257  0.17386224  0.52699039     0.06400
H1104       H  0.55759387  0.17552591  0.66138249     0.09800
Br1105     Br  0.57740597  0.05623952  0.57109675    -0.05800
Br1106     Br  0.71237487  0.14175092  0.54617856    -0.02700
Br1107     Br  0.53564035  0.22774877  0.53170379     0.00100
Br1108     Br  0.61007881  0.12159304  0.65517865    -0.04300
C1109       C  0.49045994  0.30155179  0.70970591    -0.11700
C1110       C  0.51575451  0.31342768  0.72920094     0.03800
C1111       C  0.51301320  0.34211416  0.75830147    -0.12200
C1112       C  0.48532746  0.35985007  0.76825939     0.18700
C1113       C  0.96006927  0.34845238  0.74832944    -0.09200
C1114       C  0.96276371  0.31923340  0.71956277    -0.02200
H1115       H  0.53268091  0.35099268  0.77304271     0.05200
C1116       C  0.48388614  0.39099405  0.79871746     0.20700
H1117       H  0.94318844  0.31054056  0.70464859     0.10400
C1118       C  0.49899976  0.42909455  0.79368636    -0.15600
C1119       C  0.50134068  0.45754593  0.82293618     0.03400
C1120       C  0.48837692  0.44797422  0.85866165    -0.10900
C1121       C  0.47190837  0.41042494  0.86278169    -0.00900
C1122       C  0.46988695  0.38203480  0.83355514    -0.06100
H1123       H  0.50977468  0.43628975  0.76690405     0.06400
H1124       H  0.46164367  0.40179112  0.88949820     0.09800
Br1125     Br  0.92188672  0.37353123  0.75798415    -0.05800
Br1126     Br  0.55473111  0.29281363  0.71608055    -0.02700
Br1127     Br  0.52349610  0.50771445  0.81144173     0.00100
Br1128     Br  0.45001231  0.32984219  0.84378728    -0.04300
C1129       C  0.80508670  0.21224715  0.90338176    -0.11700
C1130       C  0.80247431  0.20550265  0.94189245     0.03800
C1131       C  0.82706982  0.19160756  0.96080847    -0.12200
C1132       C  0.85405414  0.18169643  0.94161407     0.18700
C1133       C  0.85587468  0.18592919  0.90249956    -0.09200
C1134       C  0.83210398  0.20342664  0.88419906    -0.02200
H1135       H  0.82490915  0.18776368  0.99070949     0.05200
C1136       C  0.87841402  0.16335036  0.96295143     0.20700
H1137       H  0.83448917  0.20935185  0.85460587     0.10400
C1138       C  0.87107396  0.13037490  0.98724773    -0.15600
C1139       C  0.89254606  0.11155620  0.00837829     0.03400
C1140       C  0.92291673  0.12388927  0.00373740    -0.10900
C1141       C  0.93015811  0.15805482  0.98043641    -0.00900
C1142       C  0.90808360  0.17871457  0.96119266    -0.06100
H1143       H  0.84825274  0.11891723  0.98978584     0.06400
H1144       H  0.95308560  0.16894267  0.97734060     0.09800
Br1145     Br  0.88835800  0.16441348  0.87203193    -0.05800
Br1146     Br  0.76585285  0.21488075  0.96979151    -0.02700
Br1147     Br  0.87797919  0.06856314  0.04183666     0.00100
Br1148     Br  0.91939095  0.22921171  0.93544838    -0.04300
C1149       C  0.57759039  0.09337519  0.97087550    -0.11700
C1150       C  0.60676438  0.08070074  0.97845629     0.03800
C1151       C  0.63113581  0.10625367  0.96835452    -0.12200
C1152       C  0.62691085  0.14452221  0.95087222     0.18700
C1153       C  0.59772799  0.15871186  0.94586661    -0.09200
C1154       C  0.57323665  0.13319740  0.95611626    -0.02200
H1155       H  0.65356156  0.09537797  0.97252471     0.05200
C1156       C  0.65309892  0.16612236  0.93354452     0.20700
H1157       H  0.55096281  0.14315603  0.94984771     0.10400
C1158       C  0.66431094  0.15209870  0.89900414    -0.15600
C1159       C  0.68878394  0.17173684  0.88088549     0.03400
C1160       C  0.70267144  0.20616663  0.89758217    -0.10900
C1161       C  0.69194710  0.21895038  0.93302786    -0.00900
C1162       C  0.66717664  0.19959854  0.95078420    -0.06100
H1163       H  0.65352927  0.12609970  0.88573474     0.06400
H1164       H  0.70266075  0.24453835  0.94685925     0.09800
Br1165     Br  0.59054998  0.21086251  0.92199391    -0.05800
Br1166     Br  0.61456139  0.02807263  0.00125150    -0.02700
Br1167     Br  0.70021336  0.15125215  0.83258182     0.00100
Br1168     Br  0.65308998  0.22006022  0.99820338    -0.04300
C1169       C  0.49197488  0.20712894  0.71732949    -0.11700
C1170       C  0.96436682  0.19577035  0.73483319     0.03800
C1171       C  0.96359201  0.16983510  0.76617350    -0.12200
C1172       C  0.49010305  0.15530514  0.78072945     0.18700
C1173       C  0.51771535  0.16808395  0.76420961    -0.09200
C1174       C  0.51846158  0.19333018  0.73245587    -0.02200
H1175       H  0.94224985  0.16063418  0.77904942     0.05200
C1176       C  0.48864362  0.12667282  0.81299578     0.20700
H1177       H  0.53981003  0.20198244  0.71943557     0.10400
C1178       C  0.49477866  0.08440423  0.80766735    -0.15600
C1179       C  0.49556517  0.05695533  0.83794303     0.03400
C1180       C  0.48988232  0.07180342  0.87449340    -0.10900
C1181       C  0.48240510  0.11396453  0.87928683    -0.00900
C1182       C  0.48205549  0.14128333  0.84906683    -0.06100
H1183       H  0.99952914  0.07289451  0.77981495     0.06400
H1184       H  0.47835992  0.12648013  0.90692602     0.09800
Br1185     Br  0.55486581  0.15250850  0.78465715    -0.05800
Br1186     Br  0.92713538  0.21415974  0.71680442    -0.02700
Br1187     Br  0.00418272  0.99983263  0.82716994     0.00100
Br1188     Br  0.47495177  0.19901487  0.85859649    -0.04300
C1189       C  0.92157209  0.92866905  0.04610725    -0.11700
C1190       C  0.92585058  0.88625582  0.05450063     0.03800
C1191       C  0.90105150  0.85993899  0.06039152    -0.12200
C1192       C  0.87200184  0.87509326  0.05798890     0.18700
C1193       C  0.86773712  0.91653201  0.04728634    -0.09200
C1194       C  0.89242245  0.94290790  0.04133594    -0.02200
H1195       H  0.90436458  0.82810662  0.06906738     0.05200
C1196       C  0.84676099  0.84957555  0.07283522     0.20700
H1197       H  0.88874223  0.97519299  0.03458893     0.10400
C1198       C  0.84037189  0.85022200  0.11121100    -0.15600
C1199       C  0.81671369  0.82681645  0.12703258     0.03400
C1200       C  0.79882770  0.80225809  0.10428828    -0.10900
C1201       C  0.80556405  0.80128155  0.06577399    -0.00900
C1202       C  0.82926740  0.82485459  0.04993981    -0.06100
H1203       H  0.85408032  0.86887709  0.12899810     0.06400
H1204       H  0.79213061  0.78246588  0.04790401     0.09800
Br1205     Br  0.82852693  0.93917754  0.04360497    -0.05800
Br1206     Br  0.96439654  0.86337002  0.06307854    -0.02700
Br1207     Br  0.81152282  0.82766414  0.17996171     0.00100
Br1208     Br  0.83709014  0.82246580  0.99724053    -0.04300
C1209       C  0.57455460  0.89927135  0.01740092    -0.11700
C1210       C  0.59240081  0.87095077  0.99704026     0.03800
C1211       C  0.61535506  0.85019242  0.01453733    -0.12200
C1212       C  0.62106891  0.85802985  0.05197818     0.18700
C1213       C  0.60368524  0.88712076  0.07195994    -0.09200
C1214       C  0.58040031  0.90691162  0.05479902    -0.02200
H1215       H  0.62892247  0.82813732  0.99889279     0.05200
C1216       C  0.64604452  0.83713504  0.06944370     0.20700
H1217       H  0.56761222  0.92974636  0.07039688     0.10400
C1218       C  0.67537926  0.84844635  0.05853559    -0.15600
C1219       C  0.69969385  0.82989130  0.07489882     0.03400
C1220       C  0.69474749  0.79937451  0.10270015    -0.10900
C1221       C  0.66522183  0.78890840  0.11414024    -0.00900
C1222       C  0.64099777  0.80702309  0.09744107    -0.06100
H1223       H  0.67934299  0.87170736  0.03702485     0.06400
H1224       H  0.66103513  0.76556509  0.13552781     0.09800
Br1225     Br  0.61222277  0.90303582  0.12184822    -0.05800
Br1226     Br  0.58582568  0.85920959  0.94583760    -0.02700
Br1227     Br  0.73871829  0.84587740  0.05633965     0.00100
Br1228     Br  0.60157499  0.78818912  0.11257114    -0.04300
C1229       C  0.01031606  0.94954722  0.14347952    -0.11700
C1230       C  0.00741414  0.96416293  0.18041270     0.03800
C1231       C  0.00978048  0.93629394  0.21026615    -0.12200
C1232       C  0.01507503  0.89387035  0.20402193     0.18700
C1233       C  0.51867797  0.87951836  0.16729822    -0.09200
C1234       C  0.51676413  0.90725727  0.13762497    -0.02200
H1235       H  0.00692956  0.94759908  0.23849265     0.05200
C1236       C  0.01374402  0.86421789  0.23565143     0.20700
H1237       H  0.51878840  0.89502418  0.10964601     0.10400
C1238       C  0.98585919  0.85490709  0.25283291    -0.15600
C1239       C  0.98298755  0.82488776  0.28092910     0.03400
C1240       C  0.00830333  0.80342469  0.29233374    -0.10900
C1241       C  0.53632055  0.81298449  0.27544616    -0.00900
C1242       C  0.53922039  0.84328078  0.24738729    -0.06100
H1243       H  0.96610589  0.87053588  0.24378615     0.06400
H1244       H  0.55601648  0.79720021  0.28446438     0.09800
Br1245     Br  0.52336971  0.82159474  0.15609786    -0.05800
Br1246     Br  0.00102436  0.02164504  0.19183808    -0.02700
Br1247     Br  0.94372722  0.81335224  0.30137832     0.00100
Br1248     Br  0.57834843  0.85578124  0.22648666    -0.04300
loop_ 
_geom_bond_atom_site_label_1 
_geom_bond_atom_site_label_2 
_geom_bond_distance 
_geom_bond_site_symmetry_2 
_ccdc_geom_bond_type 
O1           Ni7   1.936       .  S
O1           C22   1.272       .  A
O2          Ni25   1.883       .  S
O2           C11   1.260       .  A
O3           Ni7   1.919       .  S
O3          Ni19   1.915   1_554  S
O3         Ni649   1.899   1_545  S
O3           H26   0.964       .  S
C4           O13   1.278   1_655  A
C4          O645   1.273       .  A
C4          C556   1.489       .  S
O5          Ni24   1.945       .  S
O5           C11   1.273   1_556  A
O6          Ni24   1.894   1_545  S
O6            C8   1.268       .  A
Ni7          O10   1.944       .  S
Ni7          O12   1.903   1_545  S
C8           O18   1.274       .  A
C8          C525   1.472       .  S
O9          Ni25   1.899       .  S
O9          C639   1.269       .  A
O10          C15   1.278   1_545  A
C11         C585   1.471       .  S
O12          C14   1.269       .  A
O13         Ni24   1.938   1_545  S
C14          O20   1.271       .  A
C14         C565   1.478       .  S
C15         O633   1.269       .  A
C15         C605   1.489       .  S
H16          O17   0.960   1_655  S
O17         Ni25   1.906   1_556  S
O17         Ni24   1.916       .  S
O17        Ni643   1.902   1_465  S
O18        Ni643   1.934   1_455  S
Ni19         O23   1.895   1_556  S
Ni19         O21   1.905       .  S
Ni19        O642   1.934       .  S
Ni19        O641   1.902   1_545  S
O20        Ni649   1.927       .  S
O21         C628   1.273       .  A
C22          O23   1.265       .  A
C22         C516   1.486       .  S
Ni25        O644   1.927   1_455  S
Ni25        O627   1.899   1_465  S
C27          C33   1.538       .  S
C27          C31   1.536       .  S
C27         C656   1.545       .  S
C27         H652   1.110       .  S
H28         C651   1.110       .  S
C29          C36   1.541       .  S
C29         C659   1.539       .  S
C29         C658   1.542       .  S
C29          H30   1.110       .  S
C31         C658   1.371       .  D
C31        C1169   1.483       .  S
C32         C651   1.545   1_455  S
C32          C35   1.376       .  D
C32         C476   1.490       .  S
C33          C36   1.379       .  D
C33         C445   1.493       .  S
C34         C653   1.542       .  S
C34         C655   1.371       .  D
C34         C485   1.486       .  S
C35         C653   1.539   1_455  S
C35         C405   1.491       .  S
C36         C425   1.491       .  S
O37         Ni43   1.939       .  S
O37          C58   1.277       .  A
O38         Ni61   1.900       .  S
O38          C47   1.269   1_556  A
O39         Ni43   1.893       .  S
O39         Ni55   1.912   1_556  S
O39        Ni685   1.891   1_455  S
O39          H62   0.965   1_455  S
C40          O49   1.278       .  A
C40         O681   1.276       .  A
C40         C385   1.488       .  S
O41         Ni60   1.929       .  S
O41          C47   1.271       .  A
O42         Ni60   1.901       .  S
O42          C44   1.270       .  A
Ni43         O46   1.942       .  S
Ni43         O48   1.893       .  S
C44          O54   1.274       .  A
C44         C365   1.489       .  S
O45         Ni61   1.912       .  S
O45         C675   1.276       .  A
O46          C51   1.281   1_455  A
C47         C336   1.468   1_554  S
O48          C50   1.269       .  A
O49         Ni60   1.929       .  S
C50          O56   1.280       .  A
C50         C305   1.499       .  S
C51         O669   1.276       .  A
C51         C496   1.502       .  S
H52          O53   0.965       .  S
O53         Ni61   1.917   1_554  S
O53         Ni60   1.904       .  S
O53        Ni679   1.895       .  S
O54        Ni679   1.935       .  S
Ni55         O59   1.892       .  S
Ni55         O57   1.917       .  S
Ni55        O678   1.935   1_455  S
Ni55        O677   1.895   1_455  S
O56        Ni685   1.953   1_455  S
O57         C664   1.276       .  A
C58          O59   1.265   1_556  A
C58         C356   1.490   1_556  S
Ni61        O680   1.953       .  S
Ni61        O663   1.891       .  S
C63          C69   1.531       .  S
C63          C67   1.541       .  S
C63         C692   1.536       .  S
C63         H688   1.111       .  S
H64         C687   1.111       .  S
C65          C72   1.548       .  S
C65         C695   1.537       .  S
C65         C694   1.542       .  S
C65          H66   1.110       .  S
C67         C694   1.374       .  D
C67         C616   1.484       .  S
C68         C687   1.536       .  S
C68          C71   1.375       .  D
C68         C296   1.478       .  S
C69          C72   1.375       .  D
C69         C276   1.497       .  S
C70         C689   1.542       .  S
C70         C691   1.374       .  D
C70        C1020   1.494       .  S
C71         C689   1.537       .  S
C71         C225   1.498       .  S
C72         C256   1.476       .  S
O73         Ni79   1.936       .  S
O73          C94   1.273       .  A
O74         Ni97   1.900       .  S
O74          C83   1.269       .  A
O75         Ni79   1.898       .  S
O75         Ni97   1.888   1_545  S
O75         Ni91   1.908       .  S
O75          H98   0.966       .  S
C76          O93   1.274       .  A
C76          O85   1.276   1_545  A
C76         C205   1.476       .  S
O77         Ni96   1.920       .  S
O77          C83   1.273       .  A
O78         Ni96   1.902   1_545  S
O78          C80   1.270       .  A
Ni79         O82   1.930   1_545  S
Ni79         O84   1.891   1_545  S
C80          O90   1.274       .  A
C80         C465   1.482       .  S
O81         Ni97   1.915       .  S
O81          C87   1.278       .  A
O82          C87   1.281       .  A
C83         C285   1.486       .  S
O84          C86   1.266       .  A
O85         Ni96   1.923       .  S
C86          O92   1.277       .  A
C86         C265   1.483       .  S
C87         C185   1.481       .  S
H88          O89   0.965       .  S
O89         Ni97   1.916       .  S
O89         Ni91   1.890   1_565  S
O89         Ni96   1.896       .  S
O90         Ni91   1.932       .  S
Ni91         O95   1.885       .  S
Ni91         O93   1.914       .  S
O92         Ni97   1.941       .  S
C94          O95   1.263       .  A
C94         C456   1.461       .  S
C99         C105   1.532       .  S
C99         C104   1.532       .  S
C99         C103   1.546       .  S
C99         H100   1.111       .  S
C101        C107   1.541       .  S
C101        C106   1.548       .  S
C101        C108   1.541       .  S
C101        H102   1.110       .  S
C103        C106   1.386       .  D
C103        C165   1.494       .  S
C104        C107   1.366       .  D
C104        C376   1.478       .  S
C105        C108   1.375       .  D
C105        C345   1.491       .  S
C106        C196   1.502       .  S
C107        C576   1.487       .  S
C108        C596   1.488       .  S
O109       Ni115   1.945       .  S
O109        C130   1.275       .  A
O110       Ni133   1.893       .  S
O110        C119   1.263       .  A
O111       Ni115   1.914       .  S
O111       Ni133   1.905       .  S
O111       Ni127   1.914       .  S
O111        H134   0.963       .  S
C112        O129   1.271       .  A
C112        O121   1.275       .  A
C112        C176   1.476       .  S
O113       Ni132   1.927       .  S
O113        C119   1.272       .  A
O114       Ni132   1.898       .  S
O114        C116   1.266       .  A
Ni115       O118   1.941       .  S
Ni115       O120   1.884       .  S
C116        O126   1.270       .  A
C116        C245   1.470       .  S
O117       Ni133   1.909       .  S
O117        C123   1.270       .  A
O118        C123   1.278       .  A
C119        C436   1.489       .  S
O120        C122   1.264       .  A
O121       Ni132   1.935       .  S
C122        O128   1.280       .  A
C122        C416   1.492       .  S
C123        C156   1.481       .  S
H124        O125   0.964       .  S
O125       Ni133   1.916       .  S
O125       Ni127   1.902       .  S
O125       Ni132   1.924       .  S
O126       Ni127   1.924       .  S
Ni127       O131   1.888       .  S
Ni127       O129   1.912       .  S
O128       Ni133   1.951       .  S
C130        O131   1.259       .  A
C130        C236   1.490       .  S
C135        C141   1.535       .  S
C135        C140   1.525       .  S
C135        C139   1.549       .  S
C135        H136   1.110       .  S
C137        C143   1.540       .  S
C137        C142   1.551       .  S
C137        C144   1.539       .  S
C137        H138   1.106       .  S
C139        C142   1.393       .  D
C139        C145   1.504       .  S
C140        C143   1.362       .  D
C140        C325   1.481       .  S
C141        C144   1.373       .  D
C141        C316   1.484       .  S
C142        C216   1.503       .  S
C143        C505   1.478       .  S
C144        C536   1.494       .  S
C145        C146   1.420       .  A
C145        C150   1.408       .  A
C146        C147   1.406       .  A
C146       Br162   1.920       .  S
C147        C148   1.406       .  A
C147        H151   1.083       .  S
C148        C152   1.492       .  S
C148        C149   1.408       .  A
C149        C150   1.395       .  A
C149       Br161   1.922       .  S
C150        H153   1.083       .  S
C152        C154   1.403       .  A
C152        C158   1.413       .  A
C154        C155   1.397       .  A
C154        H159   1.084       .  S
C155        C156   1.411       .  A
C155       Br163   1.918       .  S
C156        C157   1.405       .  A
C157        C158   1.406       .  A
C157        H160   1.083       .  S
C158       Br164   1.918       .  S
C165        C166   1.415       .  A
C165        C170   1.405       .  A
C166        C167   1.404       .  A
C166       Br182   1.920       .  S
C167        C168   1.405       .  A
C167        H171   1.083       .  S
C168        C172   1.487       .  S
C168        C169   1.409       .  A
C169        C170   1.398       .  A
C169       Br181   1.920       .  S
C170        H173   1.083       .  S
C172        C174   1.408       .  A
C172        C178   1.410       .  A
C174        C175   1.407       .  A
C174        H179   1.083       .  S
C175        C176   1.407       .  A
C175       Br183   1.916       .  S
C176        C177   1.403       .  A
C177        C178   1.398       .  A
C177        H180   1.084       .  S
C178       Br184   1.921       .  S
C185        C186   1.408       .  A
C185        C190   1.406       .  A
C186        C187   1.401       .  A
C186       Br202   1.912       .  S
C187        C188   1.405       .  A
C187        H191   1.084       .  S
C188        C192   1.483       .  S
C188        C189   1.409       .  A
C189        C190   1.400       .  A
C189       Br201   1.920       .  S
C190        H193   1.083       .  S
C192        C194   1.396       .  A
C192        C198   1.409       .  A
C194        C195   1.396       .  A
C194        H199   1.084       .  S
C195        C196   1.419       .  A
C195       Br203   1.913       .  S
C196        C197   1.409       .  A
C197        C198   1.403       .  A
C197        H200   1.082       .  S
C198       Br204   1.918       .  S
C205        C206   1.415       .  A
C205        C210   1.403       .  A
C206        C207   1.398       .  A
C206       Br222   1.922       .  S
C207        C208   1.400       .  A
C207        H211   1.084       .  S
C208        C212   1.480       .  S
C208        C209   1.411       .  A
C209        C210   1.399       .  A
C209       Br221   1.918       .  S
C210        H213   1.084       .  S
C212        C214   1.393       .  A
C212        C218   1.408       .  A
C214        C215   1.393       .  A
C214        H219   1.084       .  S
C215        C216   1.421       .  A
C215       Br223   1.911       .  S
C216        C217   1.411       .  A
C217        C218   1.403       .  A
C217        H220   1.082       .  S
C218       Br224   1.919       .  S
C225        C226   1.411       .  A
C225        C230   1.406       .  A
C226        C227   1.401       .  A
C226       Br242   1.914       .  S
C227        C228   1.407       .  A
C227        H231   1.083       .  S
C228        C232   1.490       .  S
C228        C229   1.412       .  A
C229        C230   1.392       .  A
C229       Br241   1.920       .  S
C230        H233   1.083       .  S
C232        C234   1.401       .  A
C232        C238   1.414       .  A
C234        C235   1.394       .  A
C234        H239   1.082       .  S
C235        C236   1.417       .  A
C235       Br243   1.920       .  S
C236        C237   1.407       .  A
C237        C238   1.401       .  A
C237        H240   1.083       .  S
C238       Br244   1.921       .  S
C245        C246   1.411       .  A
C245        C250   1.402       .  A
C246        C247   1.398       .  A
C246       Br262   1.919       .  S
C247        C248   1.400       .  A
C247        H251   1.083       .  S
C248        C252   1.471       .  S
C248        C249   1.407       .  A
C249        C250   1.394       .  A
C249       Br261   1.917       .  S
C250        H253   1.084       .  S
C252        C254   1.401       .  A
C252        C258   1.405       .  A
C254        C255   1.393       .  A
C254        H259   1.084       .  S
C255        C256   1.405       .  A
C255       Br263   1.911       .  S
C256        C257   1.405       .  A
C257        C258   1.398       .  A
C257        H260   1.083       .  S
C258       Br264   1.917       .  S
C265        C266   1.415       .  A
C265        C270   1.406       .  A
C266        C267   1.393       .  A
C266       Br282   1.925       .  S
C267        C268   1.402       .  A
C267        H271   1.084       .  S
C268        C272   1.488       .  S
C268        C269   1.411       .  A
C269        C270   1.404       .  A
C269       Br281   1.915       .  S
C270        H273   1.083       .  S
C272        C274   1.400       .  A
C272        C278   1.412       .  A
C274        C275   1.394       .  A
C274        H279   1.084       .  S
C275        C276   1.414       .  A
C275       Br283   1.908       .  S
C276        C277   1.407       .  A
C277        C278   1.403       .  A
C277        H280   1.083       .  S
C278       Br284   1.919       .  S
C285        C286   1.415       .  A
C285        C290   1.412       .  A
C286        C287   1.400       .  A
C286       Br302   1.922       .  S
C287        C288   1.402       .  A
C287        H291   1.079       .  S
C288        C292   1.472       .  S
C288        C289   1.401       .  A
C289        C290   1.392       .  A
C289       Br301   1.920       .  S
C290        H293   1.083       .  S
C292        C294   1.400       .  A
C292        C298   1.408       .  A
C294        C295   1.394       .  A
C294        H299   1.084       .  S
C295        C296   1.414       .  A
C295       Br303   1.922       .  S
C296        C297   1.398       .  A
C297        C298   1.395       .  A
C297        H300   1.084       .  S
C298       Br304   1.908       .  S
C305        C306   1.418       .  A
C305        C310   1.414       .  A
C306        C307   1.409       .  A
C306       Br322   1.919   1_556  S
C307        C308   1.405       .  A
C307        H311   1.083       .  S
C308        C312   1.479       .  S
C308        C309   1.400       .  A
C309        C310   1.393       .  A
C309       Br321   1.922       .  S
C310        H313   1.083       .  S
C312        C314   1.403       .  A
C312        C318   1.407       .  A
C314        C315   1.401       .  A
C314        H319   1.083       .  S
C315        C316   1.411       .  A
C315       Br323   1.919       .  S
C316        C317   1.401       .  A
C317        C318   1.399       .  A
C317        H320   1.083       .  S
C318       Br324   1.916       .  S
C325        C326   1.405       .  A
C325        C330   1.403       .  A
C326        C327   1.395       .  A
C326       Br342   1.910       .  S
C327        C328   1.401       .  A
C327        H331   1.084       .  S
C328        C332   1.479       .  S
C328        C329   1.410       .  A
C329        C330   1.402       .  A
C329       Br341   1.918   1_556  S
C330        H333   1.082       .  S
C332        C334   1.401       .  A
C332        C338   1.412       .  A
C334        C335   1.395       .  A
C334        H339   1.084       .  S
C335        C336   1.409       .  A
C335       Br343   1.921       .  S
C336        C337   1.401   1_556  A
C337        C338   1.404   1_554  A
C337        H340   1.083       .  S
C338       Br344   1.918   1_556  S
C345        C346   1.413       .  A
C345        C350   1.406       .  A
C346        C347   1.399       .  A
C346       Br362   1.912       .  S
C347        C348   1.400       .  A
C347        H351   1.084       .  S
C348        C352   1.471       .  S
C348        C349   1.403       .  A
C349        C350   1.393       .  A
C349       Br361   1.918   1_554  S
C350        H353   1.083       .  S
C352        C354   1.400       .  A
C352        C358   1.401       .  A
C354        C355   1.401       .  A
C354        H359   1.084       .  S
C355        C356   1.419       .  A
C355       Br363   1.916       .  S
C356        C357   1.410   1_554  A
C357        C358   1.394   1_556  A
C357        H360   1.083       .  S
C358       Br364   1.920       .  S
C365        C366   1.418       .  A
C365        C370   1.410       .  A
C366        C367   1.402       .  A
C366       Br382   1.916       .  S
C367        C368   1.400       .  A
C367        H371   1.084       .  S
C368        C372   1.473       .  S
C368        C369   1.402       .  A
C369        C370   1.394       .  A
C369       Br381   1.920       .  S
C370        H373   1.083       .  S
C372        C374   1.400       .  A
C372        C378   1.408       .  A
C374        C375   1.397       .  A
C374        H379   1.084       .  S
C375        C376   1.408       .  A
C375       Br383   1.914       .  S
C376        C377   1.401       .  A
C377        C378   1.398       .  A
C377        H380   1.084       .  S
C378       Br384   1.917       .  S
C385        C386   1.418       .  A
C385       C1014   1.408       .  A
C386        C387   1.400       .  A
C386       Br402   1.923       .  S
C387        C388   1.402       .  A
C387        H391   1.084       .  S
C388        C392   1.485       .  S
C388       C1013   1.409       .  A
C389        C390   1.401       .  A
C389       C1012   1.409       .  A
C389       Br401   1.920       .  S
C390       C1009   1.408       .  A
C390        H393   1.084       .  S
C392        C398   1.411       .  A
C392       C1018   1.399       .  A
C394        C395   1.397       .  A
C394       C1016   1.399       .  A
C394        H399   1.084       .  S
C395       C1020   1.412       .  A
C395       Br403   1.907       .  S
C396        C694   1.494       .  S
C396        C397   1.405       .  A
C396       C1019   1.412       .  A
C397        C398   1.404       .  A
C397        H400   1.082       .  S
C398       Br404   1.917       .  S
C405        C406   1.411       .  A
C405        C410   1.406       .  A
C406        C407   1.396       .  A
C406       Br422   1.915       .  S
C407        C408   1.404       .  A
C407        H411   1.084       .  S
C408        C412   1.484       .  S
C408        C409   1.411       .  A
C409        C410   1.399       .  A
C409       Br421   1.920       .  S
C410        H413   1.083       .  S
C412        C414   1.397       .  A
C412        C418   1.411       .  A
C414        C415   1.390       .  A
C414        H419   1.084       .  S
C415        C416   1.422       .  A
C415       Br423   1.928       .  S
C416        C417   1.410       .  A
C417        C418   1.406       .  A
C417        H420   1.083       .  S
C418       Br424   1.920       .  S
C425        C426   1.416       .  A
C425        C430   1.405       .  A
C426        C427   1.391       .  A
C426       Br442   1.911       .  S
C427        C428   1.394       .  A
C427        H431   1.083       .  S
C428        C432   1.473       .  S
C428        C429   1.406       .  A
C429        C430   1.401       .  A
C429       Br441   1.915       .  S
C430        H433   1.081       .  S
C432        C434   1.402       .  A
C432        C438   1.402       .  A
C434        C435   1.402       .  A
C434        H439   1.084       .  S
C435        C436   1.417       .  A
C435       Br443   1.921       .  S
C436        C437   1.411       .  A
C437        C438   1.393       .  A
C437        H440   1.083       .  S
C438       Br444   1.921       .  S
C445        C446   1.413       .  A
C445        C450   1.408       .  A
C446        C447   1.400       .  A
C446       Br462   1.918       .  S
C447        C448   1.403       .  A
C447        H451   1.084       .  S
C448        C452   1.476       .  S
C448        C449   1.405       .  A
C449        C450   1.394       .  A
C449       Br461   1.920       .  S
C450        H453   1.082       .  S
C452        C454   1.400       .  A
C452        C458   1.412       .  A
C454        C455   1.396       .  A
C454        H459   1.084       .  S
C455        C456   1.409       .  A
C455       Br463   1.921       .  S
C456        C457   1.396       .  A
C457        C458   1.398       .  A
C457        H460   1.083       .  S
C458       Br464   1.915       .  S
C465        C466   1.416       .  A
C465        C470   1.407       .  A
C466        C467   1.402       .  A
C466       Br482   1.921       .  S
C467        C468   1.401       .  A
C467        H471   1.084       .  S
C468        C472   1.475       .  S
C468        C469   1.404       .  A
C469        C470   1.395       .  A
C469       Br481   1.919       .  S
C470        H473   1.084       .  S
C472        C474   1.396       .  A
C472        C478   1.407       .  A
C474        C475   1.397       .  A
C474        H479   1.084       .  S
C475        C476   1.416       .  A
C475       Br483   1.910       .  S
C476        C477   1.402       .  A
C477        C478   1.399       .  A
C477        H480   1.081       .  S
C478       Br484   1.918       .  S
C485        C486   1.408   1_655  A
C485       C1114   1.403       .  A
C486        C487   1.401       .  A
C486       Br502   1.916       .  S
C487        C488   1.405   1_455  A
C487        H491   1.084       .  S
C488        C492   1.488       .  S
C488       C1113   1.411       .  A
C489        C490   1.403       .  A
C489       C1112   1.411       .  A
C489       Br501   1.919       .  S
C490       C1109   1.403       .  A
C490        H493   1.082       .  S
C492        C494   1.402       .  A
C492        C498   1.407       .  A
C494        C495   1.404   1_655  A
C494        H499   1.084   1_655  S
C495        C496   1.421   1_455  A
C495       Br503   1.922       .  S
C496        C497   1.414       .  A
C497        C498   1.401       .  A
C497        H500   1.083       .  S
C498       Br504   1.921       .  S
C505        C506   1.402       .  A
C505        C510   1.401       .  A
C506        C507   1.396       .  A
C506       Br522   1.916       .  S
C507        C508   1.408       .  A
C507        H511   1.083       .  S
C508        C512   1.486       .  S
C508        C509   1.413       .  A
C509        C510   1.398       .  A
C509       Br521   1.922       .  S
C510        H513   1.082       .  S
C512        C514   1.401       .  A
C512        C518   1.413       .  A
C514        C515   1.393   1_556  A
C514        H519   1.084       .  S
C515        C516   1.417       .  A
C515       Br523   1.923       .  S
C516        C517   1.408   1_554  A
C517        C518   1.403       .  A
C517        H520   1.083       .  S
C518       Br524   1.922       .  S
C525        C526   1.410       .  A
C525        C530   1.405       .  A
C526        C527   1.396       .  A
C526       Br542   1.922   1_556  S
C527        C528   1.400       .  A
C527        H531   1.084       .  S
C528        C532   1.473       .  S
C528        C529   1.408       .  A
C529        C530   1.401       .  A
C529       Br541   1.920       .  S
C530        H533   1.084       .  S
C532        C534   1.400       .  A
C532        C538   1.402       .  A
C534        C535   1.397       .  A
C534        H539   1.084       .  S
C535        C536   1.413       .  A
C535       Br543   1.913       .  S
C536        C537   1.409       .  A
C537        C538   1.398       .  A
C537        H540   1.082       .  S
C538       Br544   1.916       .  S
C545        C655   1.483       .  S
C545        C550   1.402   1_655  A
C545       C1170   1.409       .  A
C546        C547   1.400       .  A
C546       C1169   1.409       .  A
C546       Br562   1.914       .  S
C547       C1172   1.402       .  A
C547        H551   1.084       .  S
C548        C552   1.479       .  S
C548        C549   1.408   1_655  A
C548       C1171   1.402       .  A
C549        C550   1.400       .  A
C549       Br561   1.918       .  S
C550        H553   1.081       .  S
C552        C554   1.403       .  A
C552        C558   1.403       .  A
C554        C555   1.403       .  A
C554       H1183   1.084       .  S
C555        C556   1.415       .  A
C555      Br1187   1.920   1_645  S
C556        C557   1.411       .  A
C557        C558   1.397       .  A
C557        H560   1.084       .  S
C558       Br564   1.918       .  S
H559       C1178   1.084       .  S
Br563      C1179   1.920   1_565  S
C565        C566   1.414       .  A
C565        C570   1.406       .  A
C566        C567   1.399       .  A
C566       Br582   1.921       .  S
C567        C568   1.401       .  A
C567        H571   1.084       .  S
C568        C572   1.472       .  S
C568        C569   1.404       .  A
C569        C570   1.397       .  A
C569       Br581   1.919       .  S
C570        H573   1.082       .  S
C572        C574   1.399       .  A
C572        C578   1.404       .  A
C574        C575   1.395       .  A
C574        H579   1.084       .  S
C575        C576   1.408       .  A
C575       Br583   1.910       .  S
C576        C577   1.407       .  A
C577        C578   1.400       .  A
C577        H580   1.081       .  S
C578       Br584   1.917   1_554  S
C585        C586   1.407   1_554  A
C585        C590   1.404       .  A
C586        C587   1.402   1_556  A
C586       Br602   1.917       .  S
C587        C588   1.405       .  A
C587        H591   1.083   1_554  S
C588        C592   1.473       .  S
C588        C589   1.405       .  A
C589        C590   1.393       .  A
C589       Br601   1.921       .  S
C590        H593   1.081       .  S
C592        C594   1.401       .  A
C592        C598   1.406       .  A
C594        C595   1.398       .  A
C594        H599   1.084       .  S
C595        C596   1.410       .  A
C595       Br603   1.911       .  S
C596        C597   1.407       .  A
C597        C598   1.394       .  A
C597        H600   1.084       .  S
C598       Br604   1.919       .  S
C605        C606   1.413       .  A
C605       C1234   1.409       .  A
C606        C607   1.406       .  A
C606       Br622   1.918   1_565  S
C607        C608   1.406       .  A
C607        H611   1.083       .  S
C608        C612   1.482       .  S
C608       C1233   1.405       .  A
C609        C610   1.396       .  A
C609       C1232   1.405       .  A
C609       Br621   1.921       .  S
C610       C1229   1.409       .  A
C610        H613   1.083       .  S
C612        C614   1.401       .  A
C612       C1242   1.410       .  A
C614        C615   1.398       .  A
C614        H619   1.084       .  S
C615        C616   1.409       .  A
C615       Br623   1.911       .  S
C616       C1241   1.403       .  A
C617        C618   1.403       .  A
C617       C1240   1.403       .  A
C617        H620   1.084       .  S
C618       C1236   1.410       .  A
C618       Br624   1.918       .  S
O625       Ni631   1.936       .  S
O625        C646   1.272       .  A
O626       Ni649   1.883       .  S
O626        C635   1.260       .  A
O627       Ni631   1.919       .  S
O627       Ni643   1.915   1_554  S
O627        H650   0.964   1_655  S
C628        O637   1.278       .  A
C628       C1180   1.489       .  S
O629       Ni648   1.945       .  S
O629        C635   1.273   1_556  A
O630       Ni648   1.894   1_545  S
O630        C632   1.268       .  A
Ni631       O634   1.944       .  S
Ni631       O636   1.903   1_545  S
C632        O642   1.274       .  A
C632       C1149   1.472       .  S
O633       Ni649   1.899       .  S
O634        C639   1.278   1_645  A
C635       C1209   1.471       .  S
O636        C638   1.269       .  A
O637       Ni648   1.938   1_545  S
C638        O644   1.271       .  A
C638       C1189   1.478       .  S
C639       C1229   1.489       .  S
H640        O641   0.960       .  S
O641       Ni649   1.906   1_556  S
O641       Ni648   1.916       .  S
Ni643       O647   1.895   1_556  S
Ni643       O645   1.905       .  S
C646        O647   1.265       .  A
C646       C1140   1.486       .  S
C651        C657   1.538       .  S
C651        C655   1.536       .  S
C653        C660   1.541       .  S
C653        H654   1.110       .  S
C656        C659   1.376       .  D
C656       C1100   1.490       .  S
C657        C660   1.379       .  D
C657       C1069   1.493       .  S
C658       C1109   1.486       .  S
C659       C1029   1.491       .  S
C660       C1049   1.491       .  S
O661       Ni667   1.939       .  S
O661        C682   1.277       .  A
O662       Ni685   1.900       .  S
O662        C671   1.269   1_556  A
O663       Ni667   1.893       .  S
O663       Ni679   1.912   1_556  S
O663        H686   0.965       .  S
C664        O673   1.278   1_455  A
C664       C1009   1.488       .  S
O665       Ni684   1.929       .  S
O665        C671   1.271       .  A
O666       Ni684   1.901       .  S
O666        C668   1.270       .  A
Ni667       O670   1.942       .  S
Ni667       O672   1.893       .  S
C668        O678   1.274       .  A
C668        C989   1.489       .  S
O669       Ni685   1.912       .  S
O670        C675   1.281       .  A
C671        C960   1.468   1_554  S
O672        C674   1.269       .  A
O673       Ni684   1.929       .  S
C674        O680   1.280       .  A
C674        C929   1.499       .  S
C675       C1120   1.502       .  S
H676        O677   0.965   1_455  S
O677       Ni685   1.917   1_554  S
O677       Ni684   1.904       .  S
Ni679       O683   1.892       .  S
Ni679       O681   1.917       .  S
C682        O683   1.265   1_556  A
C682        C980   1.490   1_556  S
C687        C693   1.531   1_455  S
C687        C691   1.541       .  S
C689        C696   1.548   1_455  S
C689        H690   1.110       .  S
C691       C1240   1.484       .  S
C692        C695   1.375       .  D
C692        C920   1.478       .  S
C693        C696   1.375       .  D
C693        C900   1.497       .  S
C695        C849   1.498       .  S
C696        C880   1.476       .  S
O697       Ni703   1.936       .  S
O697        C718   1.273       .  A
O698       Ni721   1.900       .  S
O698        C707   1.269       .  A
O699       Ni703   1.898       .  S
O699       Ni721   1.888   1_545  S
O699       Ni715   1.908       .  S
O699        H722   0.966       .  S
C700        O717   1.274       .  A
C700        O709   1.276   1_545  A
C700        C829   1.476       .  S
O701       Ni720   1.920       .  S
O701        C707   1.273       .  A
O702       Ni720   1.902   1_545  S
O702        C704   1.270       .  A
Ni703       O706   1.930   1_545  S
Ni703       O708   1.891   1_545  S
C704        O714   1.274       .  A
C704       C1089   1.482       .  S
O705       Ni721   1.915       .  S
O705        C711   1.278       .  A
O706        C711   1.281       .  A
C707        C909   1.486       .  S
O708        C710   1.266       .  A
O709       Ni720   1.923       .  S
C710        O716   1.277       .  A
C710        C889   1.483       .  S
C711        C809   1.481       .  S
H712        O713   0.965       .  S
O713       Ni721   1.916       .  S
O713       Ni715   1.890   1_565  S
O713       Ni720   1.896       .  S
O714       Ni715   1.931       .  S
Ni715       O719   1.885       .  S
Ni715       O717   1.914       .  S
O716       Ni721   1.941       .  S
C718        O719   1.263       .  A
C718       C1080   1.461       .  S
C723        C729   1.532       .  S
C723        C728   1.532       .  S
C723        C727   1.546       .  S
C723        H724   1.111       .  S
C725        C731   1.541       .  S
C725        C730   1.548       .  S
C725        C732   1.541       .  S
C725        H726   1.110       .  S
C727        C730   1.386       .  D
C727        C789   1.494       .  S
C728        C731   1.366       .  D
C728       C1000   1.478       .  S
C729        C732   1.375       .  D
C729        C969   1.491       .  S
C730        C820   1.502       .  S
C731       C1200   1.487       .  S
C732       C1220   1.488       .  S
O733       Ni739   1.945       .  S
O733        C754   1.275       .  A
O734       Ni757   1.893       .  S
O734        C743   1.263       .  A
O735       Ni739   1.914       .  S
O735       Ni757   1.905       .  S
O735       Ni751   1.914       .  S
O735        H758   0.963       .  S
C736        O753   1.271       .  A
C736        O745   1.275       .  A
C736        C800   1.476       .  S
O737       Ni756   1.927       .  S
O737        C743   1.272       .  A
O738       Ni756   1.898       .  S
O738        C740   1.266       .  A
Ni739       O742   1.941       .  S
Ni739       O744   1.884       .  S
C740        O750   1.270       .  A
C740        C869   1.470       .  S
O741       Ni757   1.909       .  S
O741        C747   1.270       .  A
O742        C747   1.278       .  A
C743       C1060   1.489       .  S
O744        C746   1.264       .  A
O745       Ni756   1.935       .  S
C746        O752   1.280       .  A
C746       C1040   1.492       .  S
C747        C780   1.481       .  S
H748        O749   0.964       .  S
O749       Ni757   1.916       .  S
O749       Ni751   1.902       .  S
O749       Ni756   1.924       .  S
O750       Ni751   1.924       .  S
Ni751       O755   1.888       .  S
Ni751       O753   1.912       .  S
O752       Ni757   1.951       .  S
C754        O755   1.259       .  A
C754        C860   1.490       .  S
C759        C765   1.535       .  S
C759        C764   1.525       .  S
C759        C763   1.549       .  S
C759        H760   1.110       .  S
C761        C767   1.540       .  S
C761        C766   1.551       .  S
C761        C768   1.539       .  S
C761        H762   1.106       .  S
C763        C766   1.393       .  D
C763        C769   1.504       .  S
C764        C767   1.362       .  D
C764        C949   1.481       .  S
C765        C768   1.373       .  D
C765        C940   1.484       .  S
C766        C840   1.503       .  S
C767       C1129   1.478       .  S
C768       C1160   1.494       .  S
C769        C770   1.420       .  A
C769        C774   1.408       .  A
C770        C771   1.406       .  A
C770       Br786   1.920       .  S
C771        C772   1.406       .  A
C771        H775   1.083       .  S
C772        C776   1.492       .  S
C772        C773   1.408       .  A
C773        C774   1.395       .  A
C773       Br785   1.922       .  S
C774        H777   1.083       .  S
C776        C778   1.403       .  A
C776        C782   1.413       .  A
C778        C779   1.397       .  A
C778        H783   1.084       .  S
C779        C780   1.411       .  A
C779       Br787   1.918       .  S
C780        C781   1.405       .  A
C781        C782   1.406       .  A
C781        H784   1.083       .  S
C782       Br788   1.918       .  S
C789        C790   1.415       .  A
C789        C794   1.405       .  A
C790        C791   1.404       .  A
C790       Br806   1.920       .  S
C791        C792   1.405       .  A
C791        H795   1.083       .  S
C792        C796   1.487       .  S
C792        C793   1.409       .  A
C793        C794   1.398       .  A
C793       Br805   1.920       .  S
C794        H797   1.083       .  S
C796        C798   1.408       .  A
C796        C802   1.410       .  A
C798        C799   1.407       .  A
C798        H803   1.083       .  S
C799        C800   1.407       .  A
C799       Br807   1.916       .  S
C800        C801   1.403       .  A
C801        C802   1.398       .  A
C801        H804   1.084       .  S
C802       Br808   1.921       .  S
C809        C810   1.408       .  A
C809        C814   1.406       .  A
C810        C811   1.401       .  A
C810       Br826   1.912       .  S
C811        C812   1.405       .  A
C811        H815   1.084       .  S
C812        C816   1.483       .  S
C812        C813   1.409       .  A
C813        C814   1.400       .  A
C813       Br825   1.920       .  S
C814        H817   1.083       .  S
C816        C818   1.396       .  A
C816        C822   1.409       .  A
C818        C819   1.396       .  A
C818        H823   1.084       .  S
C819        C820   1.419       .  A
C819       Br827   1.913       .  S
C820        C821   1.409       .  A
C821        C822   1.403       .  A
C821        H824   1.082       .  S
C822       Br828   1.918       .  S
C829        C830   1.415       .  A
C829        C834   1.403       .  A
C830        C831   1.398       .  A
C830       Br846   1.922       .  S
C831        C832   1.400       .  A
C831        H835   1.084       .  S
C832        C836   1.480       .  S
C832        C833   1.411       .  A
C833        C834   1.399       .  A
C833       Br845   1.918       .  S
C834        H837   1.084       .  S
C836        C838   1.393       .  A
C836        C842   1.408       .  A
C838        C839   1.393       .  A
C838        H843   1.084       .  S
C839        C840   1.421       .  A
C839       Br847   1.911       .  S
C840        C841   1.411       .  A
C841        C842   1.403       .  A
C841        H844   1.082       .  S
C842       Br848   1.919       .  S
C849        C850   1.411       .  A
C849        C854   1.406       .  A
C850        C851   1.401       .  A
C850       Br866   1.914       .  S
C851        C852   1.407       .  A
C851        H855   1.083       .  S
C852        C856   1.490       .  S
C852        C853   1.412       .  A
C853        C854   1.392       .  A
C853       Br865   1.920       .  S
C854        H857   1.083       .  S
C856        C858   1.401       .  A
C856        C862   1.414       .  A
C858        C859   1.394       .  A
C858        H863   1.082       .  S
C859        C860   1.417       .  A
C859       Br867   1.920       .  S
C860        C861   1.407       .  A
C861        C862   1.401       .  A
C861        H864   1.083       .  S
C862       Br868   1.921       .  S
C869        C870   1.411       .  A
C869        C874   1.402       .  A
C870        C871   1.398       .  A
C870       Br886   1.919       .  S
C871        C872   1.400       .  A
C871        H875   1.083       .  S
C872        C876   1.471       .  S
C872        C873   1.407       .  A
C873        C874   1.394       .  A
C873       Br885   1.917       .  S
C874        H877   1.084       .  S
C876        C878   1.401       .  A
C876        C882   1.405       .  A
C878        C879   1.393       .  A
C878        H883   1.084       .  S
C879        C880   1.405       .  A
C879       Br887   1.911       .  S
C880        C881   1.405       .  A
C881        C882   1.398       .  A
C881        H884   1.083       .  S
C882       Br888   1.917       .  S
C889        C890   1.415       .  A
C889        C894   1.406       .  A
C890        C891   1.393       .  A
C890       Br906   1.925       .  S
C891        C892   1.402       .  A
C891        H895   1.084       .  S
C892        C896   1.488       .  S
C892        C893   1.411       .  A
C893        C894   1.404       .  A
C893       Br905   1.915       .  S
C894        H897   1.083       .  S
C896        C898   1.400       .  A
C896        C902   1.412       .  A
C898        C899   1.394       .  A
C898        H903   1.084       .  S
C899        C900   1.414       .  A
C899       Br907   1.908       .  S
C900        C901   1.407       .  A
C901        C902   1.403       .  A
C901        H904   1.083       .  S
C902       Br908   1.919       .  S
C909        C910   1.415       .  A
C909        C914   1.412       .  A
C910        C911   1.400       .  A
C910       Br926   1.922       .  S
C911        C912   1.402       .  A
C911        H915   1.079       .  S
C912        C916   1.472       .  S
C912        C913   1.401       .  A
C913        C914   1.392       .  A
C913       Br925   1.920       .  S
C914        H917   1.083       .  S
C916        C918   1.400       .  A
C916        C922   1.408       .  A
C918        C919   1.394       .  A
C918        H923   1.084       .  S
C919        C920   1.414       .  A
C919       Br927   1.922       .  S
C920        C921   1.398       .  A
C921        C922   1.395       .  A
C921        H924   1.084       .  S
C922       Br928   1.908       .  S
C929        C930   1.418       .  A
C929        C934   1.414       .  A
C930        C931   1.409       .  A
C930       Br946   1.918   1_556  S
C931        C932   1.405       .  A
C931        H935   1.083       .  S
C932        C936   1.479       .  S
C932        C933   1.400       .  A
C933        C934   1.393       .  A
C933       Br945   1.922       .  S
C934        H937   1.083       .  S
C936        C938   1.403       .  A
C936        C942   1.407       .  A
C938        C939   1.401       .  A
C938        H943   1.083       .  S
C939        C940   1.411       .  A
C939       Br947   1.919       .  S
C940        C941   1.401       .  A
C941        C942   1.399       .  A
C941        H944   1.083       .  S
C942       Br948   1.916       .  S
C949        C950   1.405       .  A
C949        C954   1.403       .  A
C950        C951   1.395       .  A
C950       Br966   1.910       .  S
C951        C952   1.401       .  A
C951        H955   1.084       .  S
C952        C956   1.479       .  S
C952        C953   1.410       .  A
C953        C954   1.402       .  A
C953       Br965   1.918   1_556  S
C954        H957   1.082       .  S
C956        C958   1.401       .  A
C956        C962   1.412       .  A
C958        C959   1.395       .  A
C958        H963   1.084       .  S
C959        C960   1.409       .  A
C959       Br967   1.921       .  S
C960        C961   1.401   1_556  A
C961        C962   1.404   1_554  A
C961        H964   1.083       .  S
C962       Br968   1.918   1_556  S
C969        C970   1.413       .  A
C969        C974   1.406       .  A
C970        C971   1.399       .  A
C970       Br986   1.912       .  S
C971        C972   1.400       .  A
C971        H975   1.084       .  S
C972        C976   1.471       .  S
C972        C973   1.403       .  A
C973        C974   1.393       .  A
C973       Br985   1.918   1_554  S
C974        H977   1.083       .  S
C976        C978   1.400       .  A
C976        C982   1.401       .  A
C978        C979   1.401       .  A
C978        H983   1.084       .  S
C979        C980   1.419       .  A
C979       Br987   1.916       .  S
C980        C981   1.410   1_554  A
C981        C982   1.394   1_556  A
C981        H984   1.083       .  S
C982       Br988   1.920       .  S
C989        C990   1.418       .  A
C989        C994   1.410       .  A
C990        C991   1.402       .  A
C990      Br1006   1.916       .  S
C991        C992   1.400       .  A
C991        H995   1.084       .  S
C992        C996   1.473       .  S
C992        C993   1.402       .  A
C993        C994   1.394       .  A
C993      Br1005   1.920       .  S
C994        H997   1.083       .  S
C996        C998   1.400       .  A
C996       C1002   1.408       .  A
C998        C999   1.397       .  A
C998       H1003   1.084       .  S
C999       C1000   1.408       .  A
C999      Br1007   1.914       .  S
C1000      C1001   1.401       .  A
C1001      C1002   1.398       .  A
C1001      H1004   1.084       .  S
C1002     Br1008   1.917       .  S
C1009      C1010   1.418   1_455  A
C1010      C1011   1.400       .  A
C1010     Br1026   1.923       .  S
C1011      C1012   1.402   1_655  A
C1011      H1015   1.084       .  S
C1012      C1016   1.485       .  S
C1013      C1014   1.401       .  A
C1013     Br1025   1.920       .  S
C1014      H1017   1.084       .  S
C1016      C1022   1.411   1_455  A
C1018      C1019   1.397       .  A
C1018      H1023   1.084       .  S
C1019     Br1027   1.907       .  S
C1020      C1021   1.405   1_455  A
C1021      C1022   1.404       .  A
C1021      H1024   1.082       .  S
C1022     Br1028   1.917       .  S
C1029      C1030   1.411       .  A
C1029      C1034   1.406       .  A
C1030      C1031   1.396       .  A
C1030     Br1046   1.915       .  S
C1031      C1032   1.403       .  A
C1031      H1035   1.084       .  S
C1032      C1036   1.484       .  S
C1032      C1033   1.411       .  A
C1033      C1034   1.399       .  A
C1033     Br1045   1.920       .  S
C1034      H1037   1.083       .  S
C1036      C1038   1.397       .  A
C1036      C1042   1.411       .  A
C1038      C1039   1.390       .  A
C1038      H1043   1.084       .  S
C1039      C1040   1.422       .  A
C1039     Br1047   1.928       .  S
C1040      C1041   1.410       .  A
C1041      C1042   1.406       .  A
C1041      H1044   1.083       .  S
C1042     Br1048   1.920       .  S
C1049      C1050   1.416       .  A
C1049      C1054   1.405       .  A
C1050      C1051   1.391       .  A
C1050     Br1066   1.911       .  S
C1051      C1052   1.394       .  A
C1051      H1055   1.083       .  S
C1052      C1056   1.473       .  S
C1052      C1053   1.406       .  A
C1053      C1054   1.401       .  A
C1053     Br1065   1.915       .  S
C1054      H1057   1.081       .  S
C1056      C1058   1.402       .  A
C1056      C1062   1.402       .  A
C1058      C1059   1.402       .  A
C1058      H1063   1.084       .  S
C1059      C1060   1.417       .  A
C1059     Br1067   1.921       .  S
C1060      C1061   1.411       .  A
C1061      C1062   1.393       .  A
C1061      H1064   1.083       .  S
C1062     Br1068   1.921       .  S
C1069      C1070   1.413       .  A
C1069      C1074   1.408       .  A
C1070      C1071   1.400       .  A
C1070     Br1086   1.918       .  S
C1071      C1072   1.403       .  A
C1071      H1075   1.084       .  S
C1072      C1076   1.476       .  S
C1072      C1073   1.405       .  A
C1073      C1074   1.394       .  A
C1073     Br1085   1.920       .  S
C1074      H1077   1.082       .  S
C1076      C1078   1.400       .  A
C1076      C1082   1.412       .  A
C1078      C1079   1.396       .  A
C1078      H1083   1.084       .  S
C1079      C1080   1.409       .  A
C1079     Br1087   1.921       .  S
C1080      C1081   1.396       .  A
C1081      C1082   1.398       .  A
C1081      H1084   1.083       .  S
C1082     Br1088   1.915       .  S
C1089      C1090   1.416       .  A
C1089      C1094   1.407       .  A
C1090      C1091   1.402       .  A
C1090     Br1106   1.921       .  S
C1091      C1092   1.401       .  A
C1091      H1095   1.084       .  S
C1092      C1096   1.475       .  S
C1092      C1093   1.404       .  A
C1093      C1094   1.395       .  A
C1093     Br1105   1.919       .  S
C1094      H1097   1.084       .  S
C1096      C1098   1.396       .  A
C1096      C1102   1.407       .  A
C1098      C1099   1.397       .  A
C1098      H1103   1.084       .  S
C1099      C1100   1.416       .  A
C1099     Br1107   1.910       .  S
C1100      C1101   1.402       .  A
C1101      C1102   1.399       .  A
C1101      H1104   1.081       .  S
C1102     Br1108   1.918       .  S
C1109      C1110   1.408       .  A
C1110      C1111   1.401       .  A
C1110     Br1126   1.916       .  S
C1111      C1112   1.405       .  A
C1111      H1115   1.084       .  S
C1112      C1116   1.488       .  S
C1113      C1114   1.403       .  A
C1113     Br1125   1.919       .  S
C1114      H1117   1.082       .  S
C1116      C1118   1.402       .  A
C1116      C1122   1.407       .  A
C1118      C1119   1.404       .  A
C1118      H1123   1.084       .  S
C1119      C1120   1.421       .  A
C1119     Br1127   1.922       .  S
C1120      C1121   1.414       .  A
C1121      C1122   1.401       .  A
C1121      H1124   1.083       .  S
C1122     Br1128   1.921       .  S
C1129      C1130   1.402       .  A
C1129      C1134   1.401       .  A
C1130      C1131   1.396       .  A
C1130     Br1146   1.916       .  S
C1131      C1132   1.408       .  A
C1131      H1135   1.083       .  S
C1132      C1136   1.486       .  S
C1132      C1133   1.413       .  A
C1133      C1134   1.398       .  A
C1133     Br1145   1.922       .  S
C1134      H1137   1.082       .  S
C1136      C1138   1.401       .  A
C1136      C1142   1.413       .  A
C1138      C1139   1.393   1_556  A
C1138      H1143   1.084       .  S
C1139      C1140   1.417       .  A
C1139     Br1147   1.923       .  S
C1140      C1141   1.408   1_554  A
C1141      C1142   1.403       .  A
C1141      H1144   1.083       .  S
C1142     Br1148   1.922       .  S
C1149      C1150   1.410       .  A
C1149      C1154   1.405       .  A
C1150      C1151   1.396       .  A
C1150     Br1166   1.922   1_556  S
C1151      C1152   1.400       .  A
C1151      H1155   1.084       .  S
C1152      C1156   1.473       .  S
C1152      C1153   1.408       .  A
C1153      C1154   1.401       .  A
C1153     Br1165   1.920       .  S
C1154      H1157   1.084       .  S
C1156      C1158   1.400       .  A
C1156      C1162   1.402       .  A
C1158      C1159   1.397       .  A
C1158      H1163   1.084       .  S
C1159      C1160   1.413       .  A
C1159     Br1167   1.913       .  S
C1160      C1161   1.409       .  A
C1161      C1162   1.398       .  A
C1161      H1164   1.082       .  S
C1162     Br1168   1.916       .  S
C1169      C1174   1.402       .  A
C1170      C1171   1.400       .  A
C1170     Br1186   1.914       .  S
C1171      H1175   1.084       .  S
C1172      C1176   1.479       .  S
C1172      C1173   1.408       .  A
C1173      C1174   1.400       .  A
C1173     Br1185   1.918       .  S
C1174      H1177   1.081       .  S
C1176      C1178   1.403       .  A
C1176      C1182   1.403       .  A
C1178      C1179   1.403       .  A
C1179      C1180   1.415       .  A
C1180      C1181   1.411       .  A
C1181      C1182   1.397       .  A
C1181      H1184   1.084       .  S
C1182     Br1188   1.918       .  S
C1189      C1190   1.414       .  A
C1189      C1194   1.406       .  A
C1190      C1191   1.399       .  A
C1190     Br1206   1.921       .  S
C1191      C1192   1.401       .  A
C1191      H1195   1.084       .  S
C1192      C1196   1.472       .  S
C1192      C1193   1.404       .  A
C1193      C1194   1.397       .  A
C1193     Br1205   1.919       .  S
C1194      H1197   1.082       .  S
C1196      C1198   1.399       .  A
C1196      C1202   1.404       .  A
C1198      C1199   1.395       .  A
C1198      H1203   1.084       .  S
C1199      C1200   1.408       .  A
C1199     Br1207   1.910       .  S
C1200      C1201   1.407       .  A
C1201      C1202   1.400       .  A
C1201      H1204   1.081       .  S
C1202     Br1208   1.917   1_554  S
C1209      C1210   1.407   1_554  A
C1209      C1214   1.404       .  A
C1210      C1211   1.402   1_556  A
C1210     Br1226   1.917       .  S
C1211      C1212   1.405       .  A
C1211      H1215   1.083   1_554  S
C1212      C1216   1.473       .  S
C1212      C1213   1.405       .  A
C1213      C1214   1.393       .  A
C1213     Br1225   1.921       .  S
C1214      H1217   1.081       .  S
C1216      C1218   1.401       .  A
C1216      C1222   1.406       .  A
C1218      C1219   1.398       .  A
C1218      H1223   1.084       .  S
C1219      C1220   1.410       .  A
C1219     Br1227   1.911       .  S
C1220      C1221   1.407       .  A
C1221      C1222   1.394       .  A
C1221      H1224   1.084       .  S
C1222     Br1228   1.919       .  S
C1229      C1230   1.413       .  A
C1230      C1231   1.406       .  A
C1230     Br1246   1.918   1_565  S
C1231      C1232   1.406       .  A
C1231      H1235   1.083       .  S
C1232      C1236   1.482       .  S
C1233      C1234   1.396       .  A
C1233     Br1245   1.921       .  S
C1234      H1237   1.083       .  S
C1236      C1238   1.401   1_455  A
C1238      C1239   1.398       .  A
C1238      H1243   1.084       .  S
C1239      C1240   1.409   1_655  A
C1239     Br1247   1.911       .  S
C1241      C1242   1.403       .  A
C1241      H1244   1.084       .  S
C1242     Br1248   1.918       .  S
