geometry optimzed in LAMMPS
_audit_creation_date              2020-11-30 
_audit_creation_method            'lammps2cif' 
_symmetry_space_group_name_H-M    'P1' 
_symmetry_Int_Tables_number       1 
_symmetry_cell_setting            triclinic 
loop_ 
_symmetry_equiv_pos_as_xyz 
  x,y,z 
_cell_length_a                    42.4427902 
_cell_length_b                    42.51412104671254 
_cell_length_c                    46.12964997823341 
_cell_angle_alpha                 89.90988177039927 
_cell_angle_beta                  90.1627854832617 
_cell_angle_gamma                 120.14792014812764 
loop_ 
_atom_site_label 
_atom_site_type_symbol 
_atom_site_fract_x 
_atom_site_fract_y 
_atom_site_fract_z 
_atom_site_charge 
N1          N  0.43077188  0.93767605  0.28467457    -0.07300
N2          N  0.41135879  0.91475390  0.30565996    -0.59400
N3          N  0.42581662  0.96631667  0.21826564    -0.07000
N4          N  0.40297755  0.96327096  0.19772115    -0.61600
N5          N  0.43308657  0.93968724  0.21715197    -0.06600
N6          N  0.41519584  0.91788456  0.19514180    -0.59400
N7          N  0.42337456  0.96420311  0.28347760    -0.06300
N8          N  0.39904529  0.96005596  0.30293263    -0.61900
C9          C  0.39163908  0.92925885  0.31663483     0.94900
C10         C  0.39652001  0.93314005  0.18341534     0.94700
N11         N  0.50327459  0.07604943  0.21986904    -0.07500
N12         N  0.50890662  0.09962578  0.19888412    -0.60000
N13         N  0.46701941  0.04739634  0.28553285    -0.05600
N14         N  0.44724152  0.05088452  0.30571577    -0.61300
N15         N  0.50119452  0.07367011  0.28692329    -0.07500
N16         N  0.50515733  0.09607458  0.30838125    -0.60300
N17         N  0.46888487  0.05016414  0.21999226    -0.05300
N18         N  0.45034000  0.05535971  0.19959302    -0.61300
Mn19       Mn  0.44605276  0.00702077  0.25177034     1.18400
C20         C  0.47542549  0.08606343  0.18662514     0.97000
C21         C  0.47115004  0.08105675  0.32000951     0.97600
N22         N  0.50790550  0.93770556  0.21828242    -0.07500
N23         N  0.50332048  0.91520548  0.19674775    -0.63800
N24         N  0.54083519  0.96216000  0.28538215    -0.06300
N25         N  0.55958549  0.95741240  0.30592926    -0.64500
N26         N  0.50641265  0.93631203  0.28584057    -0.07000
N27         N  0.50124148  0.91319906  0.30714799    -0.64100
N28         N  0.54226422  0.96354369  0.21945922    -0.05900
N29         N  0.56156122  0.95928777  0.19916472    -0.64800
Mn30       Mn  0.46856407  0.93592846  0.25152372     1.10700
C31         C  0.53712732  0.92914858  0.18491499     0.98200
C32         C  0.53484237  0.92696418  0.31954395     0.98300
N33         N  0.57595439  0.07201476  0.28778473    -0.07100
N34         N  0.59280639  0.09314990  0.31036359    -0.62400
N35         N  0.58482297  0.04737626  0.22053311    -0.06400
N36         N  0.60668845  0.05032454  0.19927965    -0.59200
N37         N  0.57740807  0.07391373  0.21979758    -0.07700
N38         N  0.59426036  0.09553589  0.19741034    -0.62000
N39         N  0.58361085  0.04568703  0.28643256    -0.06700
N40         N  0.60566957  0.04824412  0.30748540    -0.59200
Mn41       Mn  0.54058744  0.07586043  0.25367568     1.20200
Mn42       Mn  0.56333773  0.00478471  0.25293267     1.10100
Cl43       Cl  0.50460833  0.00584668  0.25248971    -0.87100
C44         C  0.61113995  0.07770473  0.32235980     0.95200
C45         C  0.61259778  0.08036950  0.18496888     0.95000
N46         N  0.93043064  0.50073467  0.28585445    -0.07300
N47         N  0.90724622  0.49528963  0.30706161    -0.59400
N48         N  0.95735376  0.53672365  0.22028229    -0.07000
N49         N  0.95402330  0.55635734  0.19983875    -0.61600
N50         N  0.93157339  0.50243090  0.21851748    -0.06600
N51         N  0.91002032  0.49807324  0.19618024    -0.59400
N52         N  0.95648979  0.53500912  0.28567137    -0.06300
N53         N  0.95174881  0.55351965  0.30627457    -0.61900
C54         C  0.92114728  0.52863003  0.31962578     0.94900
C55         C  0.92466314  0.53216512  0.18483722     0.94700
N56         N  0.06718895  0.57168185  0.21918712    -0.07500
N57         N  0.08900856  0.58951701  0.19718329    -0.60000
N58         N  0.04054388  0.57800531  0.28603836    -0.05600
N59         N  0.04435900  0.60140677  0.30622342    -0.61300
N60         N  0.06708473  0.57052637  0.28697050    -0.07500
N61         N  0.08963487  0.58888242  0.30854202    -0.60300
N62         N  0.04091235  0.57948561  0.22057743    -0.05300
N63         N  0.04422635  0.60258563  0.20017339    -0.61300
Mn64       Mn  0.99884608  0.55759104  0.25323095     1.18400
C65         C  0.07409938  0.60861154  0.18556981     0.97000
C66         C  0.07481015  0.60793605  0.32018184     0.97600
N67         N  0.93282506  0.42787817  0.21757520    -0.07500
N68         N  0.91198123  0.41213684  0.19464831    -0.63800
N69         N  0.95800203  0.41821536  0.28430019    -0.06300
N70         N  0.95453408  0.39549029  0.30509610    -0.64500
N71         N  0.93169100  0.42598528  0.28522607    -0.07000
N72         N  0.90970337  0.40856484  0.30721611    -0.64100
N73         N  0.95917228  0.42021092  0.21849280    -0.05900
N74         N  0.95708181  0.39946850  0.19666129    -0.64800
Mn75       Mn  0.92966346  0.46317043  0.25177524     1.10700
C76         C  0.92771953  0.39463092  0.18180436     0.98200
C77         C  0.92449913  0.38970128  0.31938968     0.98300
N78         N  0.06820348  0.49492526  0.28575840    -0.07100
N79         N  0.09144037  0.49876040  0.30661858    -0.62400
N80         N  0.04239218  0.46195925  0.21920539    -0.06400
N81         N  0.04697471  0.44273690  0.19914474    -0.59200
N82         N  0.06840976  0.49625030  0.21842171    -0.07700
N83         N  0.09143824  0.50092606  0.19722560    -0.62000
N84         N  0.04207388  0.46069263  0.28439350    -0.06700
N85         N  0.04684144  0.44065424  0.30362642    -0.59200
Mn86       Mn  0.06967135  0.53441499  0.25261516     1.20200
Mn87       Mn  0.00028347  0.43990873  0.25167187     1.10100
Cl88       Cl  0.99966996  0.49880425  0.25240081    -0.87100
C89         C  0.07757109  0.46444963  0.31738615     0.95200
C90         C  0.07738199  0.46712460  0.18538647     0.99500
N91         N  0.50529367  0.42531988  0.28445268    -0.07300
N92         N  0.51026969  0.40595573  0.30449155    -0.59400
N93         N  0.47093928  0.41905379  0.21844933    -0.07000
N94         N  0.45203091  0.39661342  0.19736186    -0.61600
N95         N  0.50521320  0.42739844  0.21758363    -0.06600
N96         N  0.51026046  0.41052811  0.19553976    -0.59400
N97         N  0.47100046  0.41698668  0.28415916    -0.06300
N98         N  0.45201325  0.39200198  0.30369383    -0.61900
C99         C  0.47672128  0.38536408  0.31639985     0.94900
C100        C  0.47672774  0.39154219  0.18304493     0.94700
N101        N  0.43779741  0.49545128  0.21933275    -0.07500
N102        N  0.42059547  0.50071527  0.19752595    -0.60000
N103        N  0.42893869  0.45924381  0.28540426    -0.05600
N104        N  0.40512659  0.43935988  0.30537680    -0.61300
N105        N  0.43689534  0.49337883  0.28677032    -0.07500
N106        N  0.41843766  0.49725990  0.30827553    -0.60300
N107        N  0.42957278  0.46122133  0.21979471    -0.05300
N108        N  0.40695071  0.44261760  0.19876190    -0.61300
Mn109      Mn  0.44965533  0.43875948  0.25204300     1.18400
C110        C  0.40156072  0.46734301  0.18490688     0.97000
C111        C  0.39864587  0.46313635  0.31954726     0.97600
N112        N  0.58008581  0.50293593  0.21866757    -0.07500
N113        N  0.59706920  0.49807238  0.19668185    -0.63800
N114        N  0.58833146  0.53542266  0.28537892    -0.06300
N115        N  0.61129276  0.55412806  0.30615197    -0.64500
N116        N  0.58033835  0.50129177  0.28565190    -0.07000
N117        N  0.59805382  0.49615375  0.30710942    -0.64100
N118        N  0.58846874  0.53717552  0.21984053    -0.05900
N119        N  0.61116854  0.55625078  0.19898033    -0.64800
Mn120      Mn  0.54366060  0.46345751  0.25160923     1.10700
C121        C  0.61625626  0.53163136  0.18456652     0.98200
C122        C  0.61733756  0.52961664  0.31954512     0.98300
N123        N  0.51260389  0.56940036  0.28769701    -0.07100
N124        N  0.50774321  0.58740034  0.30893985    -0.62400
N125        N  0.54769228  0.58042495  0.22162148    -0.06400
N126        N  0.56757354  0.60571218  0.20256332    -0.59200
N127        N  0.51340802  0.57215268  0.22056473    -0.07700
N128        N  0.50933779  0.59184962  0.20014661    -0.62000
N129        N  0.54678557  0.57729833  0.28728488    -0.06700
N130        N  0.56573467  0.60033058  0.30806201    -0.59200
Mn131      Mn  0.47418828  0.53342523  0.25355132     1.20200
Mn132      Mn  0.56825712  0.55793170  0.25351012     1.10100
Cl133      Cl  0.50889367  0.49841816  0.25268924    -0.87100
C134        C  0.54115064  0.60626126  0.32161882     0.95200
C135        C  0.54356429  0.61274029  0.18925679     0.95000
N136        N  0.83637585  0.59154103  0.44211631    -0.07300
N137        N  0.86221963  0.60016139  0.42236885    -0.59400
N138        N  0.74664839  0.55433135  0.44634014    -0.07000
N139        N  0.71734151  0.53726023  0.43040274    -0.61600
N140        N  0.76257210  0.58973071  0.44287281    -0.06600
N141        N  0.74376465  0.59722674  0.42378060    -0.59400
N142        N  0.81817761  0.55609098  0.44563506    -0.06300
N143        N  0.83092508  0.54007438  0.42915730    -0.61900
C144        C  0.85838313  0.56739153  0.41468942     0.94900
C145        C  0.71526969  0.56381038  0.41653609     0.94700
N146        N  0.72149511  0.50002144  0.01598239    -0.07500
N147        N  0.68825629  0.48146070  0.02653282    -0.60000
N148        N  0.79309523  0.50067005  0.49425687    -0.05600
N149        N  0.80798330  0.48214007  0.48439328    -0.61300
N150        N  0.79545749  0.50243487  0.01497125    -0.07500
N151        N  0.81180981  0.48532017  0.02504744    -0.60300
N152        N  0.71904509  0.49822440  0.49496783    -0.05300
N153        N  0.68516958  0.47843976  0.48578997    -0.61300
Mn154      Mn  0.76902060  0.52695895  0.47000842     1.18400
C155        C  0.66698616  0.47032773  0.00258781     0.97000
C156        C  0.82164078  0.47448404  0.00090110     0.97600
N157        N  0.79410968  0.65465821  0.48976984    -0.07500
N158        N  0.77822710  0.67232227  0.47931405    -0.63800
N159        N  0.86941071  0.65737876  0.01455944    -0.06300
N160        N  0.90324684  0.67477805  0.02442904    -0.64500
N161        N  0.86851644  0.65573431  0.48952987    -0.07000
N162        N  0.90209625  0.67259775  0.47908855    -0.64100
N163        N  0.79497939  0.65565160  0.01506005    -0.05900
N164        N  0.77921357  0.67362569  0.02501180    -0.64800
Mn165      Mn  0.81615018  0.62452692  0.46513742     1.10700
C166        C  0.76879848  0.68440170  0.00086294     0.98200
C167        C  0.92387777  0.68484735  0.50287631     0.98300
N168        N  0.82327594  0.56085586  0.06143420    -0.07100
N169        N  0.83844765  0.54630823  0.07699713    -0.62400
N170        N  0.76660748  0.59378547  0.06448195    -0.06400
N171        N  0.74816704  0.60238220  0.08296368    -0.59200
N172        N  0.75110209  0.55823821  0.06271210    -0.07700
N173        N  0.72232781  0.54204237  0.07926800    -0.62000
N174        N  0.84102477  0.59646307  0.06372538    -0.06700
N175        N  0.86903566  0.60679297  0.08172780    -0.59200
Mn176      Mn  0.77262247  0.52991631  0.03912271     1.20200
Mn177      Mn  0.81868053  0.62745514  0.04033688     1.10100
Cl178      Cl  0.79503770  0.57872212  0.00075669    -0.87100
C179        C  0.86698490  0.57483285  0.08953248     0.95200
C180        C  0.72036802  0.56943149  0.09181645     0.95000
N181        N  0.76434746  0.16624214  0.44019976    -0.07300
N182        N  0.74619331  0.13890348  0.42178073    -0.59400
N183        N  0.81813762  0.25625711  0.44303672    -0.07000
N184        N  0.83153635  0.28546706  0.42678924    -0.61600
N185        N  0.83718991  0.23979415  0.44052415    -0.06600
N186        N  0.86423442  0.25792089  0.42188091    -0.59400
N187        N  0.74726086  0.18466289  0.44290183    -0.06300
N188        N  0.71762021  0.17063498  0.42711479    -0.61900
C189        C  0.71685278  0.14210144  0.41407612     0.94900
C190        C  0.86033439  0.28663235  0.41367255     0.94700
N191        N  0.79348181  0.28895817  0.01422568    -0.07500
N192        N  0.80995391  0.32257956  0.02413946    -0.60000
N193        N  0.71715788  0.21115891  0.49118502    -0.05600
N194        N  0.68356066  0.19639534  0.48128808    -0.61300
N195        N  0.71954154  0.21659838  0.01297572    -0.07500
N196        N  0.68573711  0.20087846  0.02229875    -0.60300
N197        N  0.78950651  0.28422762  0.49147254    -0.05300
N198        N  0.80411413  0.31769966  0.48163452    -0.61300
Mn199      Mn  0.76777829  0.23432474  0.46682264     1.18400
C200        C  0.82107349  0.34320863  0.99982124     0.97000
C201        C  0.66581472  0.19107112  0.99763163     0.97600
N202        N  0.86923934  0.20922168  0.48903044    -0.07500
N203        N  0.90306376  0.22668692  0.47908732    -0.63800
N204        N  0.79477564  0.13643980  0.01645138    -0.06300
N205        N  0.77840904  0.10265434  0.02636400    -0.64500
N206        N  0.79575164  0.13485353  0.48847463    -0.07000
N207        N  0.77931416  0.10118892  0.47823564    -0.64100
N208        N  0.86943289  0.20968302  0.01817364    -0.05900
N209        N  0.90296135  0.22542436  0.02899847    -0.64800
Mn210      Mn  0.81747085  0.18673726  0.46368447     1.10700
C211        C  0.92505716  0.23563196  0.00540944     0.98200
C212        C  0.76944710  0.07985872  0.50224574     0.98300
N213        N  0.74609122  0.18727382  0.06148599    -0.07100
N214        N  0.71576452  0.17349711  0.07640811    -0.62400
N215        N  0.83693247  0.24082876  0.06538410    -0.06400
N216        N  0.86517069  0.26006318  0.08289044    -0.59200
N217        N  0.81824922  0.25759602  0.06244444    -0.07700
N218        N  0.83284183  0.28788458  0.07715843    -0.62000
N219        N  0.76209943  0.16780700  0.06439369    -0.06700
N220        N  0.74237015  0.14001769  0.08212656    -0.59200
Mn221      Mn  0.76908998  0.23784345  0.03818043     1.20200
Mn222      Mn  0.81648730  0.18777805  0.04209793     1.10100
Cl223      Cl  0.79451474  0.21280660  0.00119037    -0.87100
C224        C  0.71316393  0.14386877  0.08907333     0.95200
C225        C  0.86207710  0.28961504  0.08986480     0.95000
N226        N  0.24035156  0.83567743  0.43429791    -0.07300
N227        N  0.25853655  0.86477063  0.41746430    -0.59400
N228        N  0.18614659  0.74528721  0.43567916    -0.07000
N229        N  0.17011576  0.71483459  0.42095782    -0.61600
N230        N  0.16684595  0.76164290  0.43531556    -0.06600
N231        N  0.13689964  0.74223846  0.41956045    -0.59400
N232        N  0.25737086  0.81703224  0.43491644    -0.06300
N233        N  0.28695528  0.83254274  0.41916424    -0.61900
C234        C  0.28791172  0.86240944  0.40858031     0.94900
C235        C  0.13930211  0.71271450  0.41130643     0.94700
N236        N  0.21547055  0.71495876  0.02472415    -0.07500
N237        N  0.19994735  0.68192956  0.03584490    -0.60000
N238        N  0.28964531  0.78781687  0.48002656    -0.05600
N239        N  0.32285092  0.80255203  0.46934850    -0.61300
N240        N  0.28911131  0.78730356  0.02253395    -0.07500
N241        N  0.32282995  0.80185522  0.03225014    -0.60300
N242        N  0.21700637  0.71509738  0.47999126    -0.05300
N243        N  0.20276286  0.68230856  0.46881417    -0.61300
Mn244      Mn  0.23785391  0.76622106  0.45718952     1.18400
C245        C  0.18957489  0.66010956  0.01221848     0.97000
C246        C  0.34289631  0.80919706  0.00777997     0.97600
N247        N  0.13817474  0.79157547  0.48649750    -0.07500
N248        N  0.10390948  0.77557051  0.47751203    -0.63800
N249        N  0.21239478  0.86609807  0.01727907    -0.06300
N250        N  0.22889968  0.90033363  0.02615682    -0.64500
N251        N  0.21189062  0.86522681  0.48564097    -0.07000
N252        N  0.22724283  0.89907999  0.47598356    -0.64100
N253        N  0.13845185  0.79252678  0.01873916    -0.05900
N254        N  0.10457856  0.77643573  0.02845445    -0.64800
Mn255      Mn  0.18846290  0.81428488  0.45957256     1.10700
C256        C  0.08362341  0.76525139  0.00420453     0.98200
C257        C  0.23943340  0.92030851  0.00141551     0.98300
N258        N  0.25975686  0.81892745  0.06748507    -0.07100
N259        N  0.29047113  0.83512025  0.08193106    -0.62400
N260        N  0.16886526  0.76408191  0.07007920    -0.06400
N261        N  0.13954048  0.74513181  0.08656691    -0.59200
N262        N  0.18811732  0.74768912  0.06962661    -0.07700
N263        N  0.17275900  0.71779531  0.08503554    -0.62000
N264        N  0.24299737  0.83782657  0.06822492    -0.06700
N265        N  0.26246394  0.86773336  0.08390582    -0.59200
Mn266      Mn  0.23846526  0.76709046  0.04663851     1.20200
Mn267      Mn  0.18979605  0.81596472  0.04451949     1.10100
Cl268      Cl  0.21381159  0.78967142  0.00657111    -0.87100
C269        C  0.29232071  0.86561328  0.09187623     0.95200
C270        C  0.14248566  0.71605284  0.09551748     0.95000
N271        N  0.50765259  0.78866704  0.02161544    -0.07300
N272        N  0.48936131  0.80352236  0.03220812    -0.59400
N273        N  0.50615580  0.71596900  0.48602478    -0.07000
N274        N  0.48742513  0.68265421  0.47583793    -0.61600
N275        N  0.50813470  0.71621623  0.02131295    -0.06600
N276        N  0.49042875  0.68295234  0.03175739    -0.59400
N277        N  0.50725693  0.78904689  0.48508474    -0.06300
N278        N  0.48987838  0.80468564  0.47421241    -0.61900
C279        C  0.47733702  0.81280768  0.00832782     0.94900
C280        C  0.47827979  0.66191565  0.00776864     0.94700
N281        N  0.60020500  0.76134640  0.43725257    -0.07500
N282        N  0.60969595  0.74413084  0.41823785    -0.60000
N283        N  0.56449114  0.81535240  0.43815206    -0.05600
N284        N  0.54834102  0.82840171  0.42205780    -0.61300
N285        N  0.60009528  0.83470125  0.43587960    -0.07500
N286        N  0.60870499  0.86193735  0.41730933    -0.60300
N287        N  0.56450845  0.74457892  0.43920739    -0.05300
N288        N  0.54903501  0.71613383  0.42217893    -0.61300
Mn289      Mn  0.53524726  0.76595682  0.46192056     1.18400
C290        C  0.57711613  0.71591163  0.40915257     0.97000
C291        C  0.57561776  0.85745766  0.40908891     0.97600
N292        N  0.56735592  0.74677418  0.06748630    -0.07500
N293        N  0.55207091  0.71744687  0.08352033    -0.63800
N294        N  0.60268992  0.83715497  0.06905799    -0.06300
N295        N  0.61162205  0.86514148  0.08687362    -0.64500
N296        N  0.56703217  0.81740512  0.06736722    -0.07000
N297        N  0.55119475  0.83096386  0.08308882    -0.64100
N298        N  0.60305816  0.76356047  0.06927571    -0.05900
N299        N  0.61264383  0.74530663  0.08736158    -0.64800
Mn300      Mn  0.53720917  0.76704087  0.04473347     1.10700
C301        C  0.58008499  0.71617538  0.09568713     0.98200
C302        C  0.57866147  0.86072336  0.09523694     0.98300
N303        N  0.66144979  0.86564670  0.48612306    -0.07100
N304        N  0.67890532  0.89928397  0.47593231    -0.62400
N305        N  0.66310544  0.79343909  0.01823279    -0.06400
N306        N  0.68126320  0.77765693  0.02784992    -0.59200
N307        N  0.66162171  0.79213500  0.48734053    -0.07700
N308        N  0.67975290  0.77619799  0.47807136    -0.62000
N309        N  0.66306096  0.86721154  0.01779538    -0.06700
N310        N  0.68128602  0.90135182  0.02695280    -0.59200
Mn311      Mn  0.63257603  0.81431354  0.46080498     1.20200
Mn312      Mn  0.63478461  0.81632321  0.04448970     1.10100
Cl313      Cl  0.58485803  0.79105904  0.00550615    -0.87100
C314        C  0.68960855  0.92055518  0.49991803     0.95200
C315        C  0.69118725  0.76681403  0.00356773     0.95000
N316        N  0.17019635  0.40359641  0.43429348    -0.07300
N317        N  0.14168306  0.39404956  0.41693780    -0.59400
N318        N  0.26090092  0.43955430  0.43748499    -0.07000
N319        N  0.29117161  0.45493276  0.42255225    -0.61600
N320        N  0.24418933  0.40391020  0.43565815    -0.06600
N321        N  0.26348381  0.39445907  0.41876090    -0.59400
N322        N  0.18971535  0.43920471  0.43567477    -0.06300
N323        N  0.17543487  0.45456883  0.42004686    -0.61900
C324        C  0.14539370  0.42661046  0.40863444     0.94900
C325        C  0.29309916  0.42699270  0.41111841     0.94700
N326        N  0.29049668  0.50124863  0.02365446    -0.07500
N327        N  0.32375899  0.51916579  0.03424571    -0.60000
N328        N  0.21604276  0.49712481  0.48210657    -0.05600
N329        N  0.20111701  0.51500178  0.47084862    -0.61300
N330        N  0.21746928  0.50006522  0.02488659    -0.07500
N331        N  0.20245657  0.51777727  0.03626779    -0.60300
N332        N  0.28949741  0.49857342  0.48416983    -0.05300
N333        N  0.32334507  0.51748687  0.47487668    -0.61300
Mn334      Mn  0.23940445  0.46906303  0.45948341     1.18400
C335        C  0.34484573  0.53176150  0.01039564     0.97000
C336        C  0.19273124  0.53016760  0.01291104     0.97600
N337        N  0.21230992  0.34305462  0.48549640    -0.07500
N338        N  0.22771725  0.32468652  0.47586066    -0.63800
N339        N  0.14084308  0.34445444  0.01962984    -0.06300
N340        N  0.10686413  0.32599950  0.02929649    -0.64500
N341        N  0.13883672  0.34360675  0.48497576    -0.07000
N342        N  0.10480153  0.32710812  0.47531674    -0.64100
N343        N  0.21548279  0.34568300  0.01849269    -0.05900
N344        N  0.23123429  0.32722227  0.02748117    -0.64800
Mn345      Mn  0.19046615  0.37178003  0.45918711     1.10700
C346        C  0.24111390  0.31702701  0.00281024     0.98200
C347        C  0.08407532  0.31726365  0.49966138     0.98300
N348        N  0.18989529  0.43966561  0.06973083    -0.07100
N349        N  0.17509802  0.45428320  0.08551931    -0.62400
N350        N  0.24564214  0.40558849  0.06947563    -0.06400
N351        N  0.26531052  0.39633598  0.08619297    -0.59200
N352        N  0.26146952  0.44120206  0.06843508    -0.07700
N353        N  0.29154683  0.45679475  0.08362736    -0.62000
N354        N  0.17108888  0.40397632  0.07082513    -0.06700
N355        N  0.14249867  0.39365957  0.08816819    -0.59200
Mn356      Mn  0.23996085  0.47084499  0.04700638     1.20200
Mn357      Mn  0.19247076  0.37321957  0.04549381     1.10100
Cl358      Cl  0.21623787  0.42378232  0.00719124    -0.87100
C359        C  0.14555680  0.42580578  0.09692476     0.95200
C360        C  0.29414902  0.42901995  0.09460076     0.95000
N361        N  0.50247522  0.20919591  0.01353491    -0.07300
N362        N  0.52027046  0.19346564  0.02340497    -0.59400
N363        N  0.50214313  0.28311489  0.49372472    -0.07000
N364        N  0.52111604  0.31683642  0.48422056    -0.61600
N365        N  0.50566750  0.28329309  0.01431062    -0.06600
N366        N  0.52473344  0.31665958  0.02447552    -0.59400
N367        N  0.50027070  0.20931422  0.49368762    -0.06300
N368        N  0.51907984  0.19462082  0.48396528    -0.61900
C369        C  0.53066652  0.18346627  0.99911791     0.94900
C370        C  0.53583911  0.33740937  0.00028451     0.94700
N371        N  0.41058027  0.23885337  0.44104829    -0.07500
N372        N  0.40289863  0.25514575  0.41979749    -0.60000
N373        N  0.44381408  0.18339304  0.44459353    -0.05600
N374        N  0.45922423  0.17194819  0.42613613    -0.61300
N375        N  0.40817169  0.16568419  0.44148805    -0.07500
N376        N  0.39870833  0.14153282  0.42023931    -0.60300
N377        N  0.44610223  0.25502601  0.44447797    -0.05300
N378        N  0.46305042  0.28223406  0.42646325    -0.61300
Mn379      Mn  0.47353737  0.23290151  0.46900075     1.18400
C380        C  0.43627625  0.28249431  0.41116796     0.97000
C381        C  0.43115473  0.14595306  0.41111479     0.97600
N382        N  0.44843997  0.25515904  0.06183756    -0.07500
N383        N  0.46502918  0.28488264  0.07736977    -0.63800
N384        N  0.41012113  0.16531364  0.06414260    -0.06300
N385        N  0.39988276  0.13830034  0.08301281    -0.64500
N386        N  0.44573278  0.18258851  0.06139681    -0.07000
N387        N  0.46040182  0.16782293  0.07744128    -0.64100
N388        N  0.41286690  0.23970462  0.06404326    -0.05900
N389        N  0.40468347  0.25908332  0.08187705    -0.64800
Mn390      Mn  0.47608705  0.23275597  0.03813078     1.10700
C391        C  0.43787462  0.28748369  0.08978421     0.98200
C392        C  0.43177528  0.13999417  0.09047843     0.98300
N393        N  0.34513724  0.13456764  0.48978576    -0.07100
N394        N  0.32777651  0.10087185  0.47960612    -0.62400
N395        N  0.34950572  0.20977674  0.01577338    -0.06400
N396        N  0.33201820  0.22581801  0.02613373    -0.59200
N397        N  0.34708723  0.20911872  0.48972646    -0.07700
N398        N  0.32969950  0.22539523  0.47952903    -0.62000
N399        N  0.34829921  0.13547798  0.01527146    -0.06700
N400        N  0.33143330  0.10182299  0.02544761    -0.59200
Mn401      Mn  0.37612056  0.18634397  0.46480269     1.20200
Mn402      Mn  0.37861365  0.18690212  0.04064639     1.10100
Cl403      Cl  0.42633518  0.20980796  0.00031411    -0.87100
C404        C  0.31600264  0.07953835  0.50361076     0.95200
C405        C  0.32022679  0.23572266  0.00230982     0.95000
C406        C  0.27346253  0.28852036  0.02826531    -0.27500
C407        C  0.26083344  0.29564162  0.00216975    -0.15600
C408        C  0.26830643  0.28275619  0.47480324     0.35100
C409        C  0.28770040  0.26387276  0.47633531    -0.27000
C410        C  0.29944423  0.25600533  0.00284222    -0.16200
C411        C  0.29259988  0.26922853  0.02884877     0.36100
N412        N  0.30542079  0.26369600  0.05605928    -0.90400
H413        H  0.26886174  0.29836471  0.04855512     0.17300
H414        H  0.29576436  0.25663549  0.45630717     0.17200
N415        N  0.25992791  0.29164814  0.44695258    -0.89500
H416        H  0.28299336  0.24962466  0.06975092     0.34600
H417        H  0.32267190  0.28917846  0.06527173     0.39700
H418        H  0.24462320  0.26746118  0.43537600     0.39300
H419        H  0.28440048  0.30752441  0.43587298     0.34200
C420        C  0.40031701  0.57105262  0.47418065    -0.27500
C421        C  0.38401375  0.55837129  0.01100609    -0.15600
C422        C  0.40190444  0.57573157  0.03695052     0.35100
C423        C  0.43550503  0.60774698  0.03551129    -0.27000
C424        C  0.45102802  0.62302868  0.00864389    -0.16200
C425        C  0.43350697  0.60388711  0.47349139     0.36100
N426        N  0.45115472  0.61873345  0.44623339    -0.90400
H427        H  0.38762737  0.55773276  0.45395817     0.17300
H428        H  0.44765416  0.62227588  0.05546670     0.17200
N429        N  0.38511523  0.56266848  0.06464522    -0.89500
H430        H  0.43626601  0.60153810  0.42909652     0.34600
H431        H  0.47624434  0.61966769  0.44663607     0.39700
H432        H  0.38221640  0.58316089  0.07458961     0.39300
H433        H  0.40267288  0.55788144  0.07741590     0.34200
C434        C  0.26980939  0.98055925  0.02707794    -0.27500
C435        C  0.25808184  0.96078496  0.50059349    -0.15600
C436        C  0.26750739  0.98184603  0.47490046     0.35100
C437        C  0.28604169  0.02018553  0.47642760    -0.27000
C438        C  0.29581077  0.03865042  0.50314613    -0.16200
C439        C  0.28977746  0.01897749  0.02807835     0.36100
N440        N  0.29922143  0.03709785  0.05569514    -0.90400
H441        H  0.26192658  0.96552234  0.04726768     0.17300
H442        H  0.29290108  0.03555750  0.45640105     0.17200
N443        N  0.25857594  0.96462759  0.44705808    -0.89500
H444        H  0.32746326  0.04925509  0.05810384     0.34600
H445        H  0.28776701  0.01833287  0.07262499     0.39700
H446        H  0.28275718  0.97397092  0.43539704     0.39300
H447        H  0.24234282  0.97284496  0.43606248     0.34200
C448        C  0.17327851  0.56908746  0.98818612    -0.27500
C449        C  0.17979156  0.55642901  0.01430384    -0.15600
C450        C  0.17881171  0.57284208  0.04061378     0.35100
C451        C  0.17776684  0.60521986  0.03983468    -0.27000
C452        C  0.17740374  0.62104230  0.01321499    -0.16200
C453        C  0.17172996  0.60109021  0.98744264     0.36100
N454        N  0.19410759  0.62485833  0.43777669    -0.90400
H455        H  0.18969239  0.56177326  0.44633639     0.17300
H456        H  0.18018956  0.61933767  0.05999283     0.17200
N457        N  0.18086432  0.55803167  0.06800431    -0.89500
H458        H  0.14162125  0.59413269  0.95149830     0.34600
H459        H  0.18721076  0.61765000  0.94617907     0.39700
H460        H  0.15784565  0.55265514  0.08004104     0.39300
H461        H  0.20385092  0.57778213  0.07907438     0.34200
C462        C  0.40014720  0.82514984  0.03396529    -0.27500
C463        C  0.38204445  0.82098059  0.00750144    -0.15600
C464        C  0.40077288  0.82125778  0.46726572     0.35100
C465        C  0.43460976  0.82355332  0.46920370    -0.27000
C466        C  0.44955387  0.82391649  0.00871023    -0.16200
C467        C  0.43409655  0.82704185  0.03486085     0.36100
N468        N  0.45178125  0.83013904  0.06220325    -0.90400
H469        H  0.38687612  0.82466583  0.05411129     0.17300
H470        H  0.44627626  0.81968561  0.44959892     0.17200
N471        N  0.38316865  0.81417228  0.43961441    -0.89500
H472        H  0.43636219  0.83149837  0.07928457     0.34600
H473        H  0.47636034  0.85490172  0.06212471     0.39700
H474        H  0.37930213  0.78928513  0.43208312     0.39300
H475        H  0.40115619  0.83430055  0.42535330     0.34200
C476        C  0.71446397  0.98179654  0.02712943    -0.27500
C477        C  0.70992172  0.96132312  0.49981547    -0.15600
C478        C  0.72023050  0.98203686  0.47394729     0.35100
C479        C  0.73948659  0.02039026  0.47521722    -0.27000
C480        C  0.74890310  0.03904785  0.50186459    -0.16200
C481        C  0.73270660  0.02014755  0.02772563     0.36100
N482        N  0.73304049  0.03805492  0.05408315    -0.90400
H483        H  0.70139733  0.96699422  0.04675986     0.17300
H484        H  0.74710162  0.03559985  0.45509839     0.17200
N485        N  0.71127938  0.96444639  0.44624607    -0.89500
H486        H  0.74504463  0.03023434  0.07024522     0.34600
H487        H  0.70604959  0.02888817  0.06006958     0.39700
H488        H  0.73550723  0.97312590  0.43481053     0.39300
H489        H  0.69557961  0.97301188  0.43486314     0.34200
C490        C  0.02533897  0.28199709  0.03110337    -0.27500
C491        C  0.04466223  0.29544875  0.00493278    -0.15600
C492        C  0.02408730  0.28908294  0.97918271     0.35100
C493        C  0.98560955  0.26949531  0.97998607    -0.27000
C494        C  0.96623964  0.25599815  0.00607006    -0.16200
C495        C  0.98673958  0.26263849  0.03192511     0.36100
N496        N  0.96867015  0.24973385  0.05917584    -0.90400
H497        H  0.04023389  0.28651258  0.05122824     0.17300
H498        H  0.97080791  0.26518912  0.95983890     0.17200
N499        N  0.03921872  0.31074949  0.44863218    -0.89500
H500        H  0.97795195  0.26932670  0.57017892     0.34600
H501        H  0.97714822  0.23264829  0.06825434     0.39700
H502        H  0.03331631  0.32002268  0.94347400     0.39300
H503        H  0.03358374  0.28083791  0.93780453     0.34200
C504        C  0.60833082  0.17188416  0.02367931    -0.27500
C505        C  0.62633398  0.17698792  0.99714872    -0.15600
C506        C  0.60441973  0.17092360  0.48022482     0.35100
C507        C  0.57131157  0.17045286  0.48164853    -0.27000
C508        C  0.55815347  0.17210348  0.99886511    -0.16200
C509        C  0.57430555  0.16938543  0.02479054     0.36100
N510        N  0.55754930  0.16642731  0.05236054    -0.90400
H511        H  0.62180429  0.17272699  0.04387247     0.17300
H512        H  0.55800652  0.17046653  0.46156602     0.17200
N513        N  0.61893435  0.16976257  0.45250983    -0.89500
H514        H  0.57543934  0.18875489  0.06501626     0.34600
H515        H  0.55396999  0.14288619  0.06258561     0.39700
H516        H  0.62166885  0.19162118  0.44013201     0.39300
H517        H  0.60002655  0.14569704  0.44217829     0.34200
C518        C  0.98320407  0.71697630  0.02748074    -0.27500
C519        C  0.96495310  0.70538517  0.00073416    -0.15600
C520        C  0.98489420  0.71124249  0.47646498     0.35100
C521        C  0.02332988  0.73102246  0.47697856    -0.27000
C522        C  0.04273112  0.74465468  0.00376476    -0.16200
C523        C  0.02158634  0.73638112  0.02935479     0.36100
N524        N  0.03887738  0.74745550  0.05725847    -0.90400
H525        H  0.96743923  0.71112415  0.04720699     0.17300
H526        H  0.03785786  0.73517127  0.45677038     0.17200
N527        N  0.96649311  0.69691359  0.44947123    -0.89500
H528        H  0.01952910  0.73733775  0.07385691     0.34600
H529        H  0.05140339  0.77579115  0.05829963     0.39700
H530        H  0.97515231  0.67967164  0.44110843     0.39300
H531        H  0.97445078  0.71858144  0.43503338     0.34200
C532        C  0.74667664  0.72181048  0.02704907    -0.27500
C533        C  0.74916918  0.70575910  0.00111141    -0.15600
C534        C  0.73268919  0.71038254  0.97597982     0.35100
C535        C  0.71434882  0.73040604  0.97725156    -0.27000
C536        C  0.71169476  0.74631142  0.00320860    -0.16200
C537        C  0.72847272  0.74198098  0.02829083     0.36100
N538        N  0.72764459  0.75840321  0.05513793    -0.90400
H539        H  0.75921879  0.71899357  0.04662054     0.17300
H540        H  0.70176113  0.73315705  0.95768264     0.17200
N541        N  0.74317551  0.70208631  0.44915215    -0.89500
H542        H  0.75452451  0.77599792  0.06166574     0.34600
H543        H  0.71531808  0.73785986  0.07070193     0.39700
H544        H  0.74642002  0.71512949  0.93367815     0.39300
H545        H  0.70713999  0.67680257  0.94224764     0.34200
C546        C  0.83233538  0.43034980  0.48192285    -0.27500
C547        C  0.83505143  0.44851587  0.00105356    -0.15600
C548        C  0.83828926  0.43297595  0.02712875     0.35100
C549        C  0.83813857  0.40007197  0.02620671    -0.27000
C550        C  0.83510320  0.38274219  0.99967961    -0.16200
C551        C  0.83104570  0.39687389  0.48040768     0.36100
N552        N  0.83188616  0.38188050  0.45268623    -0.90400
H553        H  0.83268343  0.44402701  0.46198216     0.17300
H554        H  0.83725758  0.38668248  0.04645217     0.17200
N555        N  0.83935908  0.44908543  0.05463679    -0.89500
H556        H  0.85552440  0.38002649  0.45207909     0.34600
H557        H  0.83416521  0.39943749  0.43588093     0.39700
H558        H  0.86322404  0.45420404  0.06534506     0.39300
H559        H  0.81719062  0.43019995  0.06691529     0.34200
C560        C  0.61098995  0.42880815  0.97595844    -0.27500
C561        C  0.62793539  0.44316336  0.00266810    -0.15600
C562        C  0.60906024  0.42710082  0.02855199     0.35100
C563        C  0.57646388  0.39381187  0.02722441    -0.27000
C564        C  0.56270433  0.37651372  0.00048394    -0.16200
C565        C  0.57862348  0.39548852  0.97459744     0.36100
N566        N  0.56349078  0.38019409  0.94684333    -0.90400
H567        H  0.62434446  0.44179084  0.95584248     0.17300
H568        H  0.56348307  0.38032477  0.04731060     0.17200
N569        N  0.62367099  0.44331283  0.05618774    -0.89500
H570        H  0.58308615  0.37754881  0.93511576     0.34600
H571        H  0.55815832  0.39851554  0.93578453     0.39700
H572        H  0.62720042  0.42471037  0.06861179     0.39300
H573        H  0.60447656  0.44786350  0.06661877     0.34200
C574        C  0.48288744  0.34209037  0.11679186    -0.27500
C575        C  0.44593470  0.31616585  0.11169865    -0.15600
C576        C  0.41903429  0.31718979  0.12877012     0.35100
C577        C  0.42985587  0.34233768  0.15175005    -0.27000
C578        C  0.46696414  0.36689556  0.15770327    -0.16200
C579        C  0.49366452  0.36739896  0.13940629     0.36100
N580        N  0.53160640  0.39347280  0.14375380    -0.90400
H581        H  0.50389769  0.34242355  0.10330477     0.17300
H582        H  0.40909128  0.34232619  0.16535206     0.17200
N583        N  0.38106937  0.29251983  0.12315579    -0.89500
H584        H  0.53512986  0.41923600  0.13962865     0.34600
H585        H  0.54776809  0.38966333  0.12870397     0.39700
H586        H  0.37505719  0.29917319  0.10284479     0.39300
H587        H  0.36488326  0.29639829  0.13813104     0.34200
C588        C  0.42989641  0.33240267  0.34448853    -0.27500
C589        C  0.46700916  0.35813693  0.33984597    -0.15600
C590        C  0.49334727  0.35786805  0.35840845     0.35100
C591        C  0.48214195  0.33315476  0.38127307    -0.27000
C592        C  0.44506199  0.30782261  0.38634032    -0.16200
C593        C  0.41878172  0.30715439  0.36736695     0.36100
N594        N  0.38097094  0.28102801  0.37106977    -0.90400
H595        H  0.40921961  0.33176850  0.33027209     0.17300
H596        H  0.50312074  0.33410693  0.39530249     0.17200
N597        N  0.53161926  0.38269080  0.35521151    -0.89500
H598        H  0.37156059  0.26571107  0.35203213     0.34600
H599        H  0.36688280  0.29513319  0.37373660     0.39700
H600        H  0.53645203  0.40930809  0.35643973     0.39300
H601        H  0.53998653  0.37840515  0.33504839     0.34200
C602        C  0.66683028  0.52498392  0.11968436    -0.27500
C603        C  0.69266572  0.56181299  0.11439194    -0.15600
C604        C  0.69200362  0.58887766  0.13151435     0.35100
C605        C  0.66603856  0.57832158  0.15382664    -0.27000
C606        C  0.64138205  0.54134127  0.15973882    -0.16200
C607        C  0.64164105  0.51457536  0.14214864     0.36100
N608        N  0.61639519  0.47671619  0.14682768    -0.90400
H609        H  0.66631685  0.50358258  0.10660696     0.17300
H610        H  0.66583238  0.59913672  0.16719849     0.17200
N611        N  0.71768944  0.62669314  0.12659885    -0.89500
H612        H  0.63128354  0.46364322  0.15079251     0.34600
H613        H  0.60146845  0.46597235  0.12773368     0.39700
H614        H  0.74343271  0.63118880  0.13248807     0.39300
H615        H  0.71231383  0.64301178  0.14028736     0.34200
C616        C  0.69153268  0.58327171  0.37505467    -0.27500
C617        C  0.68815326  0.55541375  0.39323178    -0.15600
C618        C  0.66056119  0.51886370  0.38735061     0.35100
C619        C  0.63836225  0.51121831  0.36286069    -0.27000
C620        C  0.64213115  0.53899642  0.34455061    -0.16200
C621        C  0.66883614  0.57545471  0.35082327     0.36100
N622        N  0.67384864  0.60463990  0.33223677    -0.90400
H623        H  0.71247318  0.61118151  0.37917372     0.17300
H624        H  0.61753892  0.48337596  0.35832807     0.17200
N625        N  0.65508290  0.48940519  0.40604504    -0.89500
H626        H  0.70065818  0.61777360  0.32462329     0.34600
H627        H  0.67039983  0.62326278  0.34462540     0.39700
H628        H  0.63484896  0.46436562  0.39788003     0.39300
H629        H  0.64540693  0.49304283  0.42584439     0.34200
C630        C  0.59822189  0.69522874  0.14040330    -0.27500
C631        C  0.57334515  0.68802870  0.11783374    -0.15600
C632        C  0.53905533  0.65536273  0.11871999     0.35100
C633        C  0.52965161  0.63187223  0.14251081    -0.27000
C634        C  0.55404047  0.63940706  0.16532688    -0.16200
C635        C  0.58887092  0.67119448  0.16409821     0.36100
N636        N  0.61432487  0.67992282  0.18739113    -0.90400
H637        H  0.62434014  0.72020525  0.14029840     0.17300
H638        H  0.50326253  0.60718434  0.14282862     0.17200
N639        N  0.51343404  0.64572836  0.09539706    -0.89500
H640        H  0.62056772  0.70526180  0.19575051     0.34600
H641        H  0.63822965  0.68230976  0.17886245     0.39700
H642        H  0.48929859  0.64295170  0.10378681     0.39300
H643        H  0.50771044  0.62044647  0.08726833     0.34200
C644        C  0.53114088  0.65178423  0.34658368    -0.27500
C645        C  0.55118642  0.63401389  0.34450484    -0.15600
C646        C  0.58181626  0.64479109  0.36286236     0.35100
C647        C  0.59146076  0.67313778  0.38302392    -0.27000
C648        C  0.57081786  0.69034793  0.38527034    -0.16200
C649        C  0.54079608  0.67989124  0.36647821     0.36100
N650        N  0.52020494  0.69821067  0.36721552    -0.90400
H651        H  0.50819317  0.64439806  0.33223779     0.17300
H652        H  0.61414488  0.68080774  0.39771485     0.17200
N653        N  0.60249357  0.62648309  0.36142344    -0.89500
H654        H  0.49302281  0.67892193  0.37153119     0.34600
H655        H  0.52136985  0.70917326  0.34667292     0.39700
H656        H  0.58536198  0.59951606  0.36783363     0.39300
H657        H  0.62408926  0.63776857  0.37624414     0.34200
C658        C  0.34915401  0.42054282  0.15631651    -0.27500
C659        C  0.37596048  0.45739126  0.16030347    -0.15600
C660        C  0.37783051  0.48347571  0.14070743     0.35100
C661        C  0.35203100  0.47274667  0.11849135    -0.27000
C662        C  0.32374152  0.43626239  0.11541444    -0.16200
C663        C  0.32302643  0.40966248  0.13400905     0.36100
N664        N  0.29538018  0.37212572  0.13086475    -0.90400
H665        H  0.34798700  0.40015054  0.17108452     0.17300
H666        H  0.35378355  0.49362588  0.10397636     0.17200
N667        N  0.40590301  0.52083878  0.14310877    -0.89500
H668        H  0.29817993  0.35628395  0.14690156     0.34600
H669        H  0.29981012  0.36308617  0.11104927     0.39700
H670        H  0.39349187  0.53659796  0.14547321     0.39300
H671        H  0.42063233  0.52844010  0.12373354     0.34200
C672        C  0.37886065  0.47714070  0.36589941    -0.27500
C673        C  0.37222832  0.45226475  0.34371957    -0.15600
C674        C  0.34106443  0.41691530  0.34539471     0.35100
C675        C  0.31643258  0.40799183  0.36863024    -0.27000
C676        C  0.32235370  0.43358098  0.39015687    -0.16200
C677        C  0.35477398  0.46800799  0.38923213     0.36100
N678        N  0.36350067  0.49402066  0.41202129    -0.90400
H679        H  0.40315701  0.50381080  0.36533353     0.17300
H680        H  0.29176688  0.38164082  0.36916965     0.17200
N681        N  0.33381279  0.39058409  0.32304033    -0.89500
H682        H  0.36620047  0.51780888  0.40294923     0.34600
H683        H  0.38869079  0.50021360  0.42085164     0.39700
H684        H  0.32854811  0.40033561  0.30388638     0.39300
H685        H  0.31023210  0.36594120  0.32773089     0.34200
C686        C  0.91426775  0.57796132  0.16020875    -0.27500
C687        C  0.91107483  0.54333045  0.15971030    -0.15600
C688        C  0.89811835  0.52206063  0.13446177     0.35100
C689        C  0.88735584  0.53504224  0.11090085    -0.27000
C690        C  0.88805669  0.56853443  0.11203622    -0.16200
C691        C  0.90252856  0.59058413  0.13685061     0.36100
N692        N  0.90427047  0.62496744  0.13952982    -0.90400
H693        H  0.92499255  0.59496624  0.17930497     0.17300
H694        H  0.87680197  0.51788344  0.09186697     0.17200
N695        N  0.89598129  0.48748341  0.13191570    -0.89500
H696        H  0.87788511  0.62082956  0.13787469     0.34600
H697        H  0.92001389  0.64169164  0.12250820     0.39700
H698        H  0.87787412  0.46998015  0.14754791     0.39300
H699        H  0.92182237  0.49098969  0.13587694     0.34200
C700        C  0.86712575  0.52270478  0.38677812    -0.27500
C701        C  0.87687004  0.55942014  0.39092552    -0.15600
C702        C  0.90162201  0.58591596  0.37160452     0.35100
C703        C  0.91581745  0.57503096  0.34866759    -0.27000
C704        C  0.90524266  0.53818458  0.34424669    -0.16200
C705        C  0.88076033  0.51180325  0.36367886     0.36100
N706        N  0.87011834  0.47414411  0.36021488    -0.90400
H707        H  0.84839210  0.50195602  0.40157233     0.17300
H708        H  0.93474484  0.59548109  0.33376789     0.17200
N709        N  0.91206627  0.62351159  0.37502343    -0.89500
H710        H  0.85127101  0.45812025  0.37607232     0.34600
H711        H  0.89331776  0.47203382  0.36373752     0.39700
H712        H  0.88916322  0.62580425  0.37044822     0.39300
H713        H  0.93173943  0.63959092  0.35969166     0.34200
C714        C  0.87200455  0.34438116  0.11601612    -0.27500
C715        C  0.88356441  0.31894508  0.11106561    -0.15600
C716        C  0.91293382  0.32173479  0.12745736     0.35100
C717        C  0.92789656  0.34772612  0.14960292    -0.27000
C718        C  0.91396957  0.37090229  0.15600538    -0.16200
C719        C  0.88670205  0.37010644  0.13822450     0.36100
N720        N  0.87373447  0.39510788  0.14282929    -0.90400
H721        H  0.85048021  0.34382748  0.10297753     0.17300
H722        H  0.94975444  0.34881272  0.16255824     0.17200
N723        N  0.92782718  0.29855296  0.12253231    -0.89500
H724        H  0.85294412  0.39031722  0.12817852     0.34600
H725        H  0.89536103  0.42114607  0.13827683     0.39700
H726        H  0.93608282  0.30126493  0.10089502     0.39300
H727        H  0.90756736  0.27164262  0.12634496     0.34200
C728        C  0.91752858  0.33624364  0.34722826    -0.27500
C729        C  0.90985396  0.36476135  0.34456716    -0.15600
C730        C  0.88917258  0.36926716  0.36616764     0.35100
C731        C  0.87499950  0.34415031  0.38901512    -0.27000
C732        C  0.88093757  0.31439513  0.39100361    -0.16200
C733        C  0.90321507  0.31101234  0.36999863     0.36100
N734        N  0.91097331  0.28190700  0.37059174    -0.90400
H735        H  0.93398341  0.33284630  0.33098880     0.17300
H736        H  0.85864954  0.34770870  0.40522817     0.17200
N737        N  0.88295095  0.39950177  0.36507402    -0.89500
H738        H  0.88642000  0.25722703  0.36923831     0.34600
H739        H  0.92382238  0.28298896  0.39023409     0.39700
H740        H  0.90822737  0.42317786  0.36765356     0.39300
H741        H  0.86683940  0.39866468  0.38249622     0.34200
C742        C  0.12471929  0.46637296  0.11599629    -0.27500
C743        C  0.12265609  0.43221860  0.11759872    -0.15600
C744        C  0.10389831  0.40901232  0.14100950     0.35100
C745        C  0.08925243  0.42106330  0.16265289    -0.27000
C746        C  0.09350322  0.45619667  0.16183363    -0.16200
C747        C  0.11083887  0.47867173  0.13780376     0.36100
N748        N  0.11424540  0.51377623  0.13461188    -0.90400
H749        H  0.13840852  0.48444943  0.09793161     0.17300
H750        H  0.07531347  0.40313624  0.18073621     0.17200
N751        N  0.10044472  0.37389418  0.14400490    -0.89500
H752        H  0.13002298  0.53037373  0.15169017     0.34600
H753        H  0.08826522  0.51077484  0.13561211     0.39700
H754        H  0.12653030  0.37714435  0.14489675     0.39300
H755        H  0.08693314  0.35844681  0.12571552     0.34200
C756        C  0.11047947  0.47736454  0.36404473    -0.27500
C757        C  0.09332764  0.45339220  0.34111786    -0.15600
C758        C  0.08955479  0.41833175  0.34199333     0.35100
C759        C  0.10454763  0.40862162  0.36518970    -0.27000
C760        C  0.12297868  0.43328469  0.38762346    -0.16200
C761        C  0.12461173  0.46744936  0.38746518     0.36100
N762        N  0.14072308  0.49239057  0.41113213    -0.90400
H763        H  0.11242498  0.50378534  0.36407429     0.17300
H764        H  0.10316696  0.38247028  0.36494298     0.17200
N765        N  0.07173791  0.39298930  0.31885847    -0.89500
H766        H  0.12112152  0.49779569  0.41964624     0.34600
H767        H  0.16210787  0.51673694  0.40298460     0.39700
H768        H  0.05005798  0.36935219  0.32765757     0.39300
H769        H  0.09024815  0.38625581  0.31002453     0.34200
C770        C  0.08267444  0.66410122  0.15976659    -0.27500
C771        C  0.08866023  0.63431769  0.16087568    -0.15600
C772        C  0.10742705  0.62921103  0.13811195     0.35100
C773        C  0.12203576  0.65499511  0.11584542    -0.27000
C774        C  0.11872225  0.68640566  0.11580739    -0.16200
C775        C  0.09752530  0.69025990  0.13740913     0.36100
N776        N  0.09255708  0.72128819  0.13741133    -0.90400
H777        H  0.06732366  0.66762523  0.17691090     0.17300
H778        H  0.13727704  0.65091064  0.09890796     0.17200
N779        N  0.11151206  0.59775863  0.13735581    -0.89500
H780        H  0.07720795  0.72053297  0.15536384     0.34600
H781        H  0.07710528  0.71929448  0.11908354     0.39700
H782        H  0.13934791  0.60653294  0.13676611     0.39300
H783        H  0.09975832  0.58364170  0.11813741     0.34200
C784        C  0.10827394  0.69443562  0.36371367    -0.27500
C785        C  0.11579118  0.68414951  0.39051349    -0.15600
C786        C  0.10796087  0.64778121  0.39447427     0.35100
C787        C  0.09554762  0.62353169  0.37111483    -0.27000
C788        C  0.09009482  0.63452402  0.34393341    -0.16200
C789        C  0.09535365  0.66984361  0.34043886     0.36100
N790        N  0.08892534  0.68124587  0.31289863    -0.90400
H791        H  0.11449602  0.72220210  0.36028158     0.17300
H792        H  0.08974769  0.59585640  0.37429445     0.17200
N793        N  0.11173697  0.63451772  0.42210360    -0.89500
H794        H  0.11322129  0.70391377  0.30609342     0.34600
H795        H  0.06961616  0.68935960  0.31579182     0.39700
H796        H  0.09683787  0.63981381  0.43737830     0.39300
H797        H  0.13909559  0.64805881  0.42826362     0.34200
C798        C  0.37959658  0.90504710  0.13471640    -0.27500
C799        C  0.37070028  0.91850115  0.15900005    -0.15600
C800        C  0.33779431  0.91933721  0.15924535     0.35100
C801        C  0.31340933  0.90481059  0.13583772    -0.27000
C802        C  0.32145622  0.88949033  0.11221872    -0.16200
C803        C  0.35555745  0.89105194  0.11118992     0.36100
N804        N  0.36566069  0.87788683  0.08636454    -0.90400
H805        H  0.40533730  0.90547646  0.13393902     0.17300
H806        H  0.28727715  0.90350011  0.13700955     0.17200
N807        N  0.32817651  0.93320109  0.18388533    -0.89500
H808        H  0.37071135  0.85737592  0.09323412     0.34600
H809        H  0.38994446  0.89923352  0.07808812     0.39700
H810        H  0.30351531  0.91238765  0.19210955     0.39300
H811        H  0.32401838  0.95422090  0.17681906     0.34200
C812        C  0.37422001  0.90100916  0.36506245    -0.27500
C813        C  0.36529157  0.91430740  0.34067525    -0.15600
C814        C  0.33255485  0.91567262  0.34043464     0.35100
C815        C  0.30825740  0.90122382  0.36400174    -0.27000
C816        C  0.31650987  0.88609303  0.38774329    -0.16200
C817        C  0.35062268  0.88781112  0.38876022     0.36100
N818        N  0.36107222  0.87521456  0.41373993    -0.90400
H819        H  0.39989486  0.90129546  0.36593990     0.17300
H820        H  0.28214489  0.89998240  0.36309882     0.17200
N821        N  0.32354772  0.93057156  0.31589948    -0.89500
H822        H  0.38594636  0.89640027  0.42137118     0.34600
H823        H  0.36495333  0.85404296  0.40689878     0.39700
H824        H  0.29880371  0.92978008  0.31925526     0.39300
H825        H  0.31973551  0.91383623  0.29808529     0.34200
C826        C  0.58504998  0.92669585  0.15479847    -0.27500
C827        C  0.54764538  0.91299789  0.16073702    -0.15600
C828        C  0.52162456  0.88433882  0.14344555     0.35100
C829        C  0.53315201  0.86957540  0.12185621    -0.27000
C830        C  0.57035067  0.88178698  0.11673547    -0.16200
C831        C  0.59666902  0.91141456  0.13298184     0.36100
N832        N  0.63478775  0.92554790  0.12769542    -0.90400
H833        H  0.60545633  0.94912261  0.16751838     0.17300
H834        H  0.51209890  0.84737389  0.10936109     0.17200
N835        N  0.48317992  0.86931015  0.14706499    -0.89500
H836        H  0.65053507  0.94701963  0.14185495     0.34600
H837        H  0.64036633  0.93656163  0.10679425     0.39700
H838        H  0.47700401  0.89010456  0.14486386     0.39300
H839        H  0.47571813  0.85768095  0.16767280     0.34200
C840        C  0.58234752  0.92234866  0.34857961    -0.27500
C841        C  0.54510923  0.91031419  0.34348504    -0.15600
C842        C  0.51892425  0.88286009  0.36125113     0.35100
C843        C  0.53005636  0.86723217  0.38277793    -0.27000
C844        C  0.56715847  0.87810927  0.38724174    -0.16200
C845        C  0.59350174  0.90644192  0.37015455     0.36100
N846        N  0.63140953  0.91892808  0.37430912    -0.90400
H847        H  0.60307948  0.94383769  0.33538136     0.17300
H848        H  0.50899579  0.84592332  0.39588919     0.17200
N849        N  0.48097371  0.87084127  0.35779915    -0.89500
H850        H  0.64453559  0.94667346  0.37922644     0.34600
H851        H  0.64192288  0.91589826  0.35471469     0.39700
H852        H  0.47126468  0.87485478  0.37744793     0.39300
H853        H  0.46722246  0.84291559  0.35351514     0.34200
C854        C  0.69069017  0.10342222  0.13267232    -0.27500
C855        C  0.68457854  0.12298723  0.11115974    -0.15600
C856        C  0.65289656  0.12620070  0.11303542     0.35100
C857        C  0.62999058  0.11264273  0.13734056    -0.27000
C858        C  0.63715872  0.09462649  0.15950296    -0.16200
C859        C  0.66726087  0.08910693  0.15663438     0.36100
N860        N  0.67505135  0.07011239  0.17859122    -0.90400
H861        H  0.71456324  0.10045344  0.13158214     0.17300
H862        H  0.60627872  0.11587996  0.13868231     0.17200
N863        N  0.64366583  0.14308908  0.09023039    -0.89500
H864        H  0.70121234  0.08757261  0.18666114     0.34600
H865        H  0.67507547  0.04791577  0.16888247     0.39700
H866        H  0.64213469  0.16492767  0.09904221     0.39300
H867        H  0.61781962  0.12416450  0.08238866     0.34200
C868        C  0.65620991  0.12265521  0.39320381    -0.27500
C869        C  0.68848497  0.12083674  0.39220063    -0.15600
C870        C  0.69414536  0.10304735  0.36880655     0.35100
C871        C  0.66780830  0.08831223  0.34666121    -0.27000
C872        C  0.63669718  0.09210149  0.34699475    -0.16200
C873        C  0.63038167  0.10865745  0.37080987     0.36100
N874        N  0.59781117  0.11105131  0.37224424    -0.90400
H875        H  0.65140720  0.13586357  0.41133879     0.17300
H876        H  0.67236652  0.07512058  0.32838383     0.17200
N877        N  0.72699645  0.10124962  0.36690973    -0.89500
H878        H  0.59758874  0.12451637  0.39111055     0.34600
H879        H  0.57568406  0.08454630  0.37372146     0.39700
H880        H  0.74861077  0.12775157  0.36382641     0.39300
H881        H  0.72636770  0.08647187  0.34860163     0.34200
C882        C  0.47221516  0.09414720  0.13410417    -0.27500
C883        C  0.46591679  0.10177953  0.16225902    -0.15600
C884        C  0.44463651  0.11835034  0.16663985     0.35100
C885        C  0.43068450  0.12771709  0.14273767    -0.27000
C886        C  0.43761586  0.12081723  0.11447885    -0.16200
C887        C  0.45851848  0.10372424  0.11019350     0.36100
N888        N  0.46586080  0.09544613  0.08177449    -0.90400
H889        H  0.48736314  0.08016984  0.13071139     0.17300
H890        H  0.41590189  0.14204611  0.14620504     0.17200
N891        N  0.43753911  0.12664719  0.19513007    -0.89500
H892        H  0.48074575  0.11963183  0.07017381     0.34600
H893        H  0.44098176  0.07940203  0.07119467     0.39700
H894        H  0.46252537  0.14336111  0.20535756     0.39300
H895        H  0.42360210  0.10244332  0.20689731     0.34200
C896        C  0.41784888  0.09198899  0.38142323    -0.27500
C897        C  0.43750463  0.12963472  0.38535141    -0.15600
C898        C  0.46733938  0.15148774  0.36700577     0.35100
C899        C  0.47839215  0.13496016  0.34630799    -0.27000
C900        C  0.45971236  0.09719354  0.34304734    -0.16200
C901        C  0.42873372  0.07552896  0.36043567     0.36100
N902        N  0.40904674  0.03671354  0.35762468    -0.90400
H903        H  0.39517825  0.07517979  0.39558863     0.17300
H904        H  0.50135823  0.15168579  0.33238270     0.17200
N905        N  0.48642891  0.19048504  0.36962356    -0.89500
H906        H  0.38190765  0.02848570  0.35276952     0.34600
H907        H  0.40961904  0.02545806  0.37765412     0.39700
H908        H  0.46811033  0.19923918  0.36426391     0.39300
H909        H  0.50772622  0.20249705  0.35465409     0.34200
N910        N  0.42869481  0.92816721  0.78529486    -0.07300
N911        N  0.40921159  0.90467035  0.80584403    -0.59400
N912        N  0.42207713  0.95383005  0.71858733    -0.07000
N913        N  0.39839966  0.94882820  0.69808541    -0.61600
N914        N  0.43062237  0.92806882  0.71811261    -0.06600
N915        N  0.41287612  0.90495063  0.69677738    -0.59400
N916        N  0.42084290  0.95435699  0.78432525    -0.06300
N917        N  0.39615167  0.94940963  0.80380806    -0.61900
C918        C  0.38903222  0.91839755  0.81722722     0.94900
C919        C  0.39282572  0.91838132  0.68461721     0.94700
N920        N  0.49821478  0.06430589  0.71739943    -0.07500
N921        N  0.50198543  0.08777465  0.69680614    -0.60000
N922        N  0.46409202  0.03837355  0.78423245    -0.05600
N923        N  0.44491812  0.04236830  0.80474032    -0.61300
N924        N  0.49816626  0.06513408  0.78457524    -0.07500
N925        N  0.50258458  0.08825641  0.80558452    -0.60300
N926        N  0.46398497  0.03802013  0.71859539    -0.05300
N927        N  0.44391231  0.04282425  0.69936734    -0.61300
Mn928      Mn  0.44252943  0.99621788  0.75144543     1.18400
C929        C  0.46767006  0.07373024  0.68593851     0.97000
C930        C  0.46907463  0.07331938  0.81811798     0.97600
N931        N  0.50639258  0.92854763  0.71996585    -0.07500
N932        N  0.50176223  0.90664443  0.69795590    -0.63800
N933        N  0.53893649  0.95556303  0.78716028    -0.06300
N934        N  0.55745688  0.95171361  0.80835339    -0.64500
N935        N  0.50469591  0.92927649  0.78741845    -0.07000
N936        N  0.49930952  0.90685185  0.80925467    -0.64100
N937        N  0.54072963  0.95438908  0.72137339    -0.05900
N938        N  0.56005156  0.95073201  0.70080116    -0.64800
Mn939      Mn  0.46683196  0.92678573  0.75268017     1.10700
C940        C  0.53560413  0.92100892  0.68618272     0.98200
C941        C  0.53262683  0.92144647  0.82211606     0.98300
N942        N  0.57461374  0.06618400  0.78553419    -0.07100
N943        N  0.59347736  0.09013549  0.80611876    -0.62400
N944        N  0.58283456  0.03777168  0.72020941    -0.06400
N945        N  0.60578452  0.04044657  0.69995628    -0.59200
N946        N  0.57461462  0.06367285  0.71785123    -0.07700
N947        N  0.59218378  0.08464396  0.69532902    -0.62000
N948        N  0.58238286  0.03988618  0.78581886    -0.06700
N949        N  0.60652552  0.04530892  0.80603618    -0.59200
Mn950      Mn  0.53735177  0.06669350  0.75118245     1.20200
Mn951      Mn  0.56153574  0.99684809  0.75379311     1.10100
Cl952      Cl  0.50207219  0.99669070  0.75225885    -0.87100
C953        C  0.61319629  0.07653138  0.81873936     0.95200
C954        C  0.61159877  0.06966266  0.68449234     0.95000
N955        N  0.93932077  0.50620829  0.78403196    -0.07300
N956        N  0.91645878  0.50137110  0.80534878    -0.59400
N957        N  0.96769034  0.54090105  0.71806671    -0.07000
N958        N  0.96501821  0.56044014  0.69717245    -0.61600
N959        N  0.94143953  0.50674925  0.71653105    -0.06600
N960        N  0.92019863  0.50248046  0.69400094    -0.59400
N961        N  0.96569020  0.54036496  0.78366130    -0.06300
N962        N  0.96147533  0.55931384  0.80425152    -0.61900
C963        C  0.93082762  0.53485253  0.81781824     0.94900
C964        C  0.93556536  0.53636377  0.68215852     0.94700
N965        N  0.07728435  0.57417530  0.71912220    -0.07500
N966        N  0.10047651  0.59214409  0.69794382    -0.60000
N967        N  0.04965519  0.58165921  0.78530301    -0.05600
N968        N  0.05331356  0.60417480  0.80628941    -0.61300
N969        N  0.07552181  0.57328899  0.78639454    -0.07500
N970        N  0.09749376  0.59022013  0.80849041    -0.60300
N971        N  0.05137549  0.58252997  0.71941711    -0.05300
N972        N  0.05616504  0.60593745  0.69879428    -0.61300
Mn973      Mn  0.00857679  0.56176316  0.75164525     1.18400
C974        C  0.08679667  0.61182246  0.68540159     0.97000
C975        C  0.08315023  0.60933225  0.82074040     0.97600
N976        N  0.94037274  0.43053158  0.71675371    -0.07500
N977        N  0.91872196  0.41335731  0.69442981    -0.63800
N978        N  0.96486124  0.42193095  0.78404801    -0.06300
N979        N  0.96119488  0.39952758  0.80511799    -0.64500
N980        N  0.93885663  0.43015915  0.78468678    -0.07000
N981        N  0.91679682  0.41322194  0.80681451    -0.64100
N982        N  0.96633304  0.42227946  0.71824829    -0.05900
N983        N  0.96298093  0.39955842  0.69753937    -0.64800
Mn984      Mn  0.93799725  0.46741000  0.75046407     1.10700
C985        C  0.93341406  0.39422036  0.68264102     0.98200
C986        C  0.93134170  0.39424617  0.81932655     0.98300
N987        N  0.07484048  0.49776886  0.78708299    -0.07100
N988        N  0.09630904  0.50254437  0.80959364    -0.62400
N989        N  0.05034767  0.46406023  0.71971168    -0.06400
N990        N  0.05520898  0.44508053  0.69953033    -0.59200
N991        N  0.07680138  0.49816081  0.71954906    -0.07700
N992        N  0.10046336  0.50287410  0.69895521    -0.62000
N993        N  0.04875818  0.46353388  0.78576718    -0.06700
N994        N  0.05189173  0.44439911  0.80686201    -0.59200
Mn995      Mn  0.07789454  0.53672536  0.75301332     1.20200
Mn996      Mn  0.00753032  0.44254862  0.75189757     1.10100
Cl997      Cl  0.00796447  0.50209498  0.75173262    -0.87100
C998        C  0.08157872  0.46880860  0.82162395     0.95200
C999        C  0.08652721  0.46940134  0.68661903     0.99500
N1000       N  0.49824914  0.43065577  0.78712339    -0.07300
N1001       N  0.50375559  0.41453456  0.80958827    -0.59400
N1002       N  0.46295181  0.42159664  0.72026490    -0.07000
N1003       N  0.44374961  0.39834804  0.69966421    -0.61600
N1004       N  0.49711610  0.42949921  0.71961837    -0.06600
N1005       N  0.50176244  0.41155605  0.69821894    -0.59400
N1006       N  0.46395474  0.42240722  0.78643577    -0.06300
N1007       N  0.44554654  0.40068761  0.80804032    -0.61900
C1008       C  0.47054064  0.39603164  0.82251306     0.94900
C1009       C  0.46816659  0.39231784  0.68589932     0.94700
N1010       N  0.43064095  0.49911969  0.71939940    -0.07500
N1011       N  0.41315508  0.50440968  0.69780006    -0.60000
N1012       N  0.42240760  0.46469360  0.78605236    -0.05600
N1013       N  0.39939167  0.44580839  0.80677639    -0.61300
N1014       N  0.43100453  0.49900529  0.78690767    -0.07500
N1015       N  0.41370128  0.50403662  0.80869902    -0.60300
N1016       N  0.42188083  0.46472607  0.72014967    -0.05300
N1017       N  0.39844327  0.44602552  0.69950499    -0.61300
Mn1018     Mn  0.44228180  0.44281760  0.75316909     1.18400
C1019       C  0.39319607  0.47090091  0.68557811     0.97000
C1020       C  0.39395374  0.47038422  0.82079429     0.97600
N1021       N  0.57313562  0.50463935  0.71879272    -0.07500
N1022       N  0.59065739  0.49946949  0.69732063    -0.63800
N1023       N  0.58352344  0.53955649  0.78482430    -0.06300
N1024       N  0.60851778  0.55890049  0.80428532    -0.64500
N1025       N  0.57470212  0.50518716  0.78582534    -0.07000
N1026       N  0.59359554  0.50042436  0.80652428    -0.64100
N1027       N  0.58159951  0.53892369  0.71933176    -0.05900
N1028       N  0.60468000  0.55765342  0.69859969    -0.64800
Mn1029     Mn  0.53654656  0.46651240  0.75284538     1.10700
C1030       C  0.61008412  0.53288704  0.68484091     0.98200
C1031       C  0.61462999  0.53435333  0.81768687     0.98300
N1032       N  0.50745303  0.57396193  0.78663030    -0.07100
N1033       N  0.50303695  0.59194206  0.80814060    -0.62400
N1034       N  0.54082257  0.58178980  0.71989028    -0.06400
N1035       N  0.56011435  0.60534580  0.69959331    -0.59200
N1036       N  0.50682772  0.57444802  0.71947346    -0.07700
N1037       N  0.50249285  0.59340223  0.69860029    -0.62000
N1038       N  0.54154753  0.58157846  0.78588680    -0.06700
N1039       N  0.56085312  0.60446876  0.80663074    -0.59200
Mn1040     Mn  0.46809145  0.53753144  0.75310173     1.20200
Mn1041     Mn  0.56221908  0.56087239  0.75249633     1.10100
Cl1042     Cl  0.50227926  0.50192917  0.75288446    -0.87100
C1043       C  0.53663729  0.61063205  0.82055829     0.95200
C1044       C  0.53608658  0.61233966  0.68625585     0.95000
N1045       N  0.83903003  0.59514381  0.93691161    -0.07300
N1046       N  0.86665673  0.60470475  0.91865957    -0.59400
N1047       N  0.74844877  0.55748355  0.93966965    -0.07000
N1048       N  0.71884828  0.54147567  0.92378150    -0.61600
N1049       N  0.76461347  0.59307220  0.93741736    -0.06600
N1050       N  0.74588355  0.60188624  0.91929893    -0.59400
N1051       N  0.82057898  0.55954955  0.93930983    -0.06300
N1052       N  0.83480536  0.54435314  0.92354944    -0.61900
C1053       C  0.86352337  0.57227624  0.91067530     0.94900
C1054       C  0.71704547  0.56909495  0.91136953     0.94700
N1055       N  0.72023237  0.49943058  0.52327607    -0.07500
N1056       N  0.68726779  0.48050704  0.53422659    -0.60000
N1057       N  0.79489099  0.50200168  0.98663854    -0.05600
N1058       N  0.81094329  0.48454351  0.97661234    -0.61300
N1059       N  0.79410114  0.50180741  0.52255623    -0.07500
N1060       N  0.80958416  0.48391416  0.53283115    -0.60300
N1061       N  0.72081263  0.50004343  0.98764431    -0.05300
N1062       N  0.68707672  0.48158759  0.97807029    -0.61300
Mn1063     Mn  0.77085459  0.52923621  0.96292031     1.18400
C1064       C  0.66556220  0.46771879  0.51059054     0.97000
C1065       C  0.81842351  0.47201622  0.50871448     0.97600
N1066       N  0.79453862  0.65536883  0.98643010    -0.07500
N1067       N  0.77830753  0.67301476  0.97664754    -0.63800
N1068       N  0.86937061  0.65733889  0.51811656    -0.06300
N1069       N  0.90354556  0.67531320  0.52741077    -0.64500
N1070       N  0.86925954  0.65709192  0.98595646    -0.07000
N1071       N  0.90308444  0.67433056  0.97604366    -0.64100
N1072       N  0.79487256  0.65606825  0.51836876    -0.05900
N1073       N  0.77954887  0.67476678  0.52763345    -0.64800
Mn1074     Mn  0.81763953  0.62682711  0.96074866     1.10700
C1075       C  0.76918581  0.68488918  0.50307529     0.98200
C1076       C  0.92414365  0.68535107  0.00025447     0.98300
N1077       N  0.82268553  0.56223386  0.56736181    -0.07100
N1078       N  0.83896390  0.54807862  0.58194367    -0.62400
N1079       N  0.76620536  0.59552387  0.56912993    -0.06400
N1080       N  0.74691675  0.60441614  0.58652180    -0.59200
N1081       N  0.75079408  0.55993109  0.56807077    -0.07700
N1082       N  0.72144491  0.54405495  0.58395304    -0.62000
N1083       N  0.84106543  0.59792721  0.56843652    -0.06700
N1084       N  0.87085411  0.60875471  0.58446356    -0.59200
Mn1085     Mn  0.77180393  0.53050468  0.54577895     1.20200
Mn1086     Mn  0.81857890  0.62843174  0.54450648     1.10100
Cl1087     Cl  0.79399527  0.57800045  0.50633158    -0.87100
C1088       C  0.86896898  0.57692912  0.59249259     0.95200
C1089       C  0.71883693  0.57154749  0.59543517     0.95000
N1090       N  0.76770543  0.16891356  0.93706659    -0.07300
N1091       N  0.74938999  0.14150038  0.91863346    -0.59400
N1092       N  0.82302570  0.25888426  0.94035714    -0.07000
N1093       N  0.83765264  0.28871008  0.92493015    -0.61600
N1094       N  0.84200846  0.24227227  0.93877725    -0.06600
N1095       N  0.87042939  0.26114304  0.92136050    -0.59400
N1096       N  0.75146806  0.18826141  0.93875485    -0.06300
N1097       N  0.72242700  0.17488559  0.92232056    -0.61900
C1098       C  0.72092692  0.14573662  0.90983685     0.94900
C1099       C  0.86721878  0.29035971  0.91310073     0.94700
N1100       N  0.78993405  0.28393254  0.51982389    -0.07500
N1101       N  0.80494953  0.31729990  0.53009130    -0.60000
N1102       N  0.72046128  0.21661449  0.98465787    -0.05600
N1103       N  0.68724191  0.20100271  0.97384512    -0.61300
N1104       N  0.71737257  0.21064858  0.51954234    -0.07500
N1105       N  0.68391489  0.19545289  0.52972776    -0.60300
N1106       N  0.79419881  0.28888903  0.98590309    -0.05300
N1107       N  0.81107429  0.32235356  0.97571671    -0.61300
Mn1108     Mn  0.77202290  0.23828122  0.96208175     1.18400
C1109       C  0.81395171  0.33814009  0.50594485     0.97000
C1110       C  0.66300420  0.18641703  0.50557293     0.97600
N1111       N  0.87061389  0.21013986  0.98955019    -0.07500
N1112       N  0.90490767  0.22621236  0.98067498    -0.63800
N1113       N  0.79596331  0.13438349  0.51708303    -0.06300
N1114       N  0.77972482  0.10047257  0.52660305    -0.64500
N1115       N  0.79613535  0.13648025  0.98783712    -0.07000
N1116       N  0.78073018  0.10258643  0.97804858    -0.64100
N1117       N  0.86941055  0.20843089  0.51764389    -0.05900
N1118       N  0.90336150  0.22525441  0.52744412    -0.64800
Mn1119     Mn  0.81997583  0.18858849  0.96237989     1.10700
C1120       C  0.92426080  0.23651994  0.50322346     0.98200
C1121       C  0.76967231  0.08157337  0.00230016     0.98300
N1122       N  0.74799760  0.18219574  0.56587942    -0.07100
N1123       N  0.71760321  0.16682716  0.58063209    -0.62400
N1124       N  0.83854040  0.23763447  0.56762073    -0.06400
N1125       N  0.86767349  0.25701034  0.58427215    -0.59200
N1126       N  0.81921387  0.25390835  0.56626121    -0.07700
N1127       N  0.83427630  0.28405655  0.58134804    -0.62000
N1128       N  0.76455479  0.16314125  0.56726774    -0.06700
N1129       N  0.74504452  0.13384452  0.58371510    -0.59200
Mn1130     Mn  0.76843421  0.23292722  0.54334796     1.20200
Mn1131     Mn  0.81794203  0.18502408  0.54335538     1.10100
Cl1132     Cl  0.79309039  0.20958783  0.50428599    -0.87100
C1133       C  0.71542776  0.13657125  0.59153687     0.95200
C1134       C  0.86449908  0.28614545  0.59252864     0.95000
N1135       N  0.24217087  0.83032323  0.94101127    -0.07300
N1136       N  0.25865931  0.85472288  0.92007660    -0.59400
N1137       N  0.18709015  0.74083490  0.94685710    -0.07000
N1138       N  0.17395905  0.71159777  0.93076554    -0.61600
N1139       N  0.16886970  0.75797444  0.94303164    -0.06600
N1140       N  0.14270669  0.74027136  0.92350234    -0.59400
N1141       N  0.25876887  0.81153596  0.94467719    -0.06300
N1142       N  0.28647427  0.82261140  0.92706712    -0.61900
C1143       C  0.28648428  0.84942587  0.91170218     0.94900
C1144       C  0.14626250  0.71108813  0.91625000     0.94700
N1145       N  0.21745023  0.71376800  0.50831296    -0.07500
N1146       N  0.20349479  0.67985660  0.51720524    -0.60000
N1147       N  0.28846891  0.78557872  0.99421082    -0.05600
N1148       N  0.32160525  0.79883278  0.98385512    -0.61300
N1149       N  0.29047042  0.78682058  0.50837098    -0.07500
N1150       N  0.32424213  0.80102063  0.51776474    -0.60300
N1151       N  0.21495466  0.71358131  0.99639823    -0.05300
N1152       N  0.19912071  0.67967622  0.98743278    -0.61300
Mn1153     Mn  0.23754749  0.76269138  0.97034150     1.18400
C1154       C  0.19424108  0.66049028  0.49223159     0.97000
C1155       C  0.34424546  0.81091621  0.49318248     0.97600
N1156       N  0.13852235  0.79128226  0.99015841    -0.07500
N1157       N  0.10470194  0.77434087  0.98013590    -0.63800
N1158       N  0.21349704  0.86493745  0.51422252    -0.06300
N1159       N  0.22994319  0.89869011  0.52429173    -0.64500
N1160       N  0.21270657  0.86480427  0.98869373    -0.07000
N1161       N  0.22947387  0.89819547  0.97786595    -0.64100
N1162       N  0.13944170  0.79123262  0.51508209    -0.05900
N1163       N  0.10600895  0.77502578  0.52584227    -0.64800
Mn1164     Mn  0.18982964  0.81197158  0.96490093     1.10700
C1165       C  0.08393190  0.76538539  0.50222505     0.98200
C1166       C  0.23841957  0.91988927  0.50023967     0.98300
N1167       N  0.26243817  0.81350344  0.55828416    -0.07100
N1168       N  0.29163690  0.82622479  0.57462838    -0.62400
N1169       N  0.17256758  0.75966216  0.56205124    -0.06400
N1170       N  0.14721707  0.74271388  0.58223141    -0.59200
N1171       N  0.19083716  0.74252254  0.55837926    -0.07700
N1172       N  0.17853566  0.71403305  0.57532526    -0.62000
N1173       N  0.24575281  0.83224528  0.56173103    -0.06700
N1174       N  0.26360207  0.85823475  0.58128134    -0.59200
Mn1175     Mn  0.24045160  0.76383149  0.53361817     1.20200
Mn1176     Mn  0.19213675  0.81286520  0.53911220     1.10100
Cl1177     Cl  0.21460428  0.78950401  0.49742711    -0.87100
C1178       C  0.29257319  0.85428500  0.58870152     0.95200
C1179       C  0.15131684  0.71402007  0.59010961     0.95000
N1180       N  0.50655192  0.78937510  0.51340465    -0.07300
N1181       N  0.48842989  0.80510986  0.52262959    -0.59400
N1182       N  0.50679921  0.71574780  0.99300088    -0.07000
N1183       N  0.48806743  0.68215629  0.98332192    -0.61600
N1184       N  0.50553696  0.71598077  0.51434634    -0.06600
N1185       N  0.48637123  0.68250223  0.52428677    -0.59400
N1186       N  0.50670577  0.78843648  0.99329248    -0.06300
N1187       N  0.48783123  0.80324306  0.98378550    -0.61900
C1188       C  0.47841549  0.81483232  0.49784390     0.94900
C1189       C  0.47546724  0.66194103  0.49993835     0.94700
N1190       N  0.59792855  0.76133073  0.94090639    -0.07500
N1191       N  0.60641304  0.74483646  0.92045155    -0.60000
N1192       N  0.56240940  0.81534168  0.94457944    -0.05600
N1193       N  0.54594736  0.82811827  0.92851688    -0.61300
N1194       N  0.59793725  0.83421628  0.94131589    -0.07500
N1195       N  0.60617406  0.86065598  0.92217087    -0.60300
N1196       N  0.56232733  0.74456211  0.94388495    -0.05300
N1197       N  0.54602591  0.71680968  0.92619301    -0.61300
Mn1198     Mn  0.53411728  0.76577228  0.96847766     1.18400
C1199       C  0.57341536  0.71701408  0.91160812     0.97000
C1200       C  0.57307526  0.85638408  0.91460084     0.97600
N1201       N  0.56279867  0.74601599  0.56254723    -0.07500
N1202       N  0.54656300  0.71879426  0.58065099    -0.63800
N1203       N  0.59928532  0.83579786  0.56431546    -0.06300
N1204       N  0.60844139  0.86245959  0.58343952    -0.64500
N1205       N  0.56364571  0.81718094  0.56159302    -0.07000
N1206       N  0.54802242  0.83050182  0.57796969    -0.64100
N1207       N  0.59843622  0.76269923  0.56540602    -0.05900
N1208       N  0.60698360  0.74668130  0.58632021    -0.64800
Mn1209     Mn  0.53416368  0.76687177  0.53821526     1.10700
C1210       C  0.57394580  0.71926946  0.59549938     0.98200
C1211       C  0.57579495  0.85881891  0.59147134     0.98300
N1212       N  0.66214323  0.86636679  0.98916037    -0.07100
N1213       N  0.67982848  0.89987732  0.97859292    -0.62400
N1214       N  0.66123648  0.79238029  0.51599095    -0.06400
N1215       N  0.67915810  0.77672201  0.52640589    -0.59200
N1216       N  0.66172978  0.79241351  0.98959159    -0.07700
N1217       N  0.67887881  0.77584060  0.97952900    -0.62000
N1218       N  0.66125198  0.86598771  0.51475238    -0.06700
N1219       N  0.67859548  0.89992398  0.52430641    -0.59200
Mn1220     Mn  0.63157539  0.81434268  0.96442086     1.20200
Mn1221     Mn  0.63175896  0.81502036  0.54090802     1.10100
Cl1222     Cl  0.58385895  0.79068572  0.50049637    -0.87100
C1223       C  0.69183989  0.92161954  0.00233334     0.95200
C1224       C  0.69075797  0.76669548  0.50261220     0.95000
N1225       N  0.17198501  0.41088254  0.94340308    -0.07300
N1226       N  0.14476235  0.40214450  0.92481602    -0.59400
N1227       N  0.26229817  0.44775064  0.94567540    -0.07000
N1228       N  0.29183262  0.46437850  0.92983288    -0.61600
N1229       N  0.24622388  0.41224593  0.94267588    -0.06600
N1230       N  0.26509832  0.40423764  0.92411830    -0.59400
N1231       N  0.19037536  0.44639613  0.94674800    -0.06300
N1232       N  0.17641761  0.46228979  0.93123446    -0.61900
C1233       C  0.14780046  0.43481325  0.91775944     0.94900
C1234       C  0.29384843  0.43735961  0.91658745     0.94700
N1235       N  0.28849378  0.49922252  0.51246925    -0.07500
N1236       N  0.32150706  0.51844337  0.52326866    -0.60000
N1237       N  0.21740850  0.50167168  0.99656994    -0.05600
N1238       N  0.20219790  0.52050183  0.98786893    -0.61300
N1239       N  0.21501266  0.49760870  0.51043540    -0.07500
N1240       N  0.19951301  0.51608026  0.51925579    -0.60300
N1241       N  0.29093656  0.50284763  0.99534530    -0.05300
N1242       N  0.32463139  0.52191469  0.98582649    -0.61300
Mn1243     Mn  0.24046515  0.47517602  0.97071832     1.18400
C1244       C  0.34307424  0.52950565  0.49962746     0.97000
C1245       C  0.19064834  0.52650216  0.49425524     0.97600
N1246       N  0.21565730  0.34709678  0.98987612    -0.07500
N1247       N  0.23147735  0.32948520  0.97917409    -0.63800
N1248       N  0.13913817  0.34402807  0.51362427    -0.06300
N1249       N  0.10540447  0.32778608  0.52369616    -0.64500
N1250       N  0.14100548  0.34613016  0.99102428    -0.07000
N1251       N  0.10712680  0.32884244  0.98101120    -0.64100
N1252       N  0.21274757  0.34377707  0.51411389    -0.05900
N1253       N  0.22842582  0.32576019  0.52421991    -0.64800
Mn1254     Mn  0.19294700  0.37752753  0.96581123     1.10700
C1255       C  0.23767672  0.31387914  0.50015117     0.98200
C1256       C  0.08585642  0.31624037  0.00501903     0.98300
N1257       N  0.18775797  0.44125034  0.55973575    -0.07100
N1258       N  0.17600689  0.45676266  0.57783433    -0.62400
N1259       N  0.24349376  0.40725831  0.56312331    -0.06400
N1260       N  0.26129671  0.39899396  0.58266534    -0.59200
N1261       N  0.25951125  0.44280538  0.56055040    -0.07700
N1262       N  0.28814541  0.45924300  0.57743765    -0.62000
N1263       N  0.16997126  0.40571327  0.56287243    -0.06700
N1264       N  0.14537115  0.39647274  0.58380871    -0.59200
Mn1265     Mn  0.23774672  0.47066989  0.53597227     1.20200
Mn1266     Mn  0.19064913  0.37351327  0.53919042     1.10100
Cl1267     Cl  0.21442039  0.42086441  0.49848787    -0.87100
C1268       C  0.14949832  0.42893564  0.59268031     0.95200
C1269       C  0.28942650  0.43204968  0.59115700     0.95000
N1270       N  0.49959737  0.20892592  0.52202718    -0.07300
N1271       N  0.51805110  0.19405050  0.53240714    -0.59400
N1272       N  0.50522994  0.28345356  0.98597473    -0.07000
N1273       N  0.52402212  0.31690582  0.97602144    -0.61600
N1274       N  0.50115094  0.28245154  0.52205912    -0.06600
N1275       N  0.51931334  0.31564869  0.53265749    -0.59400
N1276       N  0.50211895  0.20923870  0.98517735    -0.06300
N1277       N  0.51970992  0.19346469  0.97495824    -0.61900
C1278       C  0.52982964  0.18492444  0.50836401     0.94900
C1279       C  0.53144022  0.33692160  0.50878941     0.94700
N1280       N  0.41055322  0.24023675  0.93772754    -0.07500
N1281       N  0.40133527  0.26002875  0.92123417    -0.60000
N1282       N  0.44406172  0.18392700  0.93767167    -0.05600
N1283       N  0.45877308  0.17124508  0.91964822    -0.61300
N1284       N  0.40831339  0.16581578  0.93581766    -0.07500
N1285       N  0.39804748  0.13993746  0.91579618    -0.60300
N1286       N  0.44627238  0.25615126  0.93917372    -0.05300
N1287       N  0.46192880  0.28659905  0.92434154    -0.61300
Mn1288     Mn  0.47493445  0.23338789  0.96163329     1.18400
C1289       C  0.43396737  0.28912335  0.91324944     0.97000
C1290       C  0.43021018  0.14393244  0.90607920     0.97600
N1291       N  0.44181312  0.25284573  0.56784599    -0.07500
N1292       N  0.45764920  0.28213993  0.58383884    -0.63800
N1293       N  0.40393307  0.16293509  0.56924721    -0.06300
N1294       N  0.39304118  0.13460840  0.58691511    -0.64500
N1295       N  0.43969933  0.18096269  0.56790834    -0.07000
N1296       N  0.45386418  0.16572127  0.58390095    -0.64100
N1297       N  0.40617131  0.23724902  0.56910506    -0.05900
N1298       N  0.39715987  0.25621946  0.58674675    -0.64800
Mn1299     Mn  0.47101683  0.23144817  0.54532128     1.10700
C1300       C  0.43002621  0.28445437  0.59556395     0.98200
C1301       C  0.42485715  0.13666478  0.59532276     0.98300
N1302       N  0.34787596  0.13512002  0.98663855    -0.07100
N1303       N  0.33069841  0.10107637  0.97711054    -0.62400
N1304       N  0.34611723  0.20847891  0.51833580    -0.06400
N1305       N  0.32811032  0.22430591  0.52788606    -0.59200
N1306       N  0.34873121  0.20967318  0.98716882    -0.07700
N1307       N  0.33064838  0.22569075  0.97780549    -0.62000
N1308       N  0.34424395  0.13414791  0.51839776    -0.06700
N1309       N  0.32631273  0.10021738  0.52795292    -0.59200
Mn1310     Mn  0.37717462  0.18685733  0.96096322     1.20200
Mn1311     Mn  0.37342150  0.18493210  0.54461219     1.10100
Cl1312     Cl  0.42316554  0.20873265  0.50589354    -0.87100
C1313       C  0.32040197  0.08037722  0.00154272     0.95200
C1314       C  0.31786479  0.23476616  0.50353876     0.95000
C1315       C  0.26633632  0.28323561  0.52721776    -0.27500
C1316       C  0.25748408  0.29288447  0.50050806    -0.15600
C1317       C  0.26761223  0.28235099  0.97617356     0.35100
C1318       C  0.28655721  0.26283278  0.97676573    -0.27000
C1319       C  0.29680330  0.25449229  0.50306725    -0.16200
C1320       C  0.28571554  0.26435416  0.52874760     0.36100
N1321       N  0.29412721  0.25549991  0.55659695    -0.90400
H1322       H  0.25835606  0.29054164  0.54725297     0.17300
H1323       H  0.29126540  0.25304804  0.95648881     0.17200
N1324       N  0.25528188  0.28841438  0.94894494    -0.89500
H1325       H  0.26966159  0.23957007  0.56766662     0.34600
H1326       H  0.30938691  0.27969134  0.56817886     0.39700
H1327       H  0.23801902  0.26310651  0.93947179     0.39300
H1328       H  0.27794858  0.30252138  0.93548586     0.34200
C1329       C  0.40237430  0.57054667  0.98451649    -0.27500
C1330       C  0.38200162  0.55706769  0.50045250    -0.15600
C1331       C  0.39960202  0.57332776  0.52677521     0.35100
C1332       C  0.43252743  0.60617292  0.52614062    -0.27000
C1333       C  0.44810032  0.62297866  0.49970235    -0.16200
C1334       C  0.43590970  0.60287946  0.98300637     0.36100
N1335       N  0.45331470  0.61632707  0.95544319    -0.90400
H1336       H  0.38936736  0.55635824  0.96465178     0.17300
H1337       H  0.44440071  0.61976858  0.54647722     0.17200
N1338       N  0.38332286  0.55785235  0.55417870    -0.89500
H1339       H  0.43804097  0.59847912  0.93875333     0.34600
H1340       H  0.47822994  0.61691066  0.95604190     0.39700
H1341       H  0.37948119  0.57693670  0.56552737     0.39300
H1342       H  0.40160333  0.55310518  0.56597338     0.34200
C1343       C  0.26789121  0.97927091  0.52729040    -0.27500
C1344       C  0.26024599  0.96130127  0.00071305    -0.15600
C1345       C  0.27123939  0.98161489  0.97458687     0.35100
C1346       C  0.29106835  0.02010210  0.97556302    -0.27000
C1347       C  0.30030151  0.03935300  0.00194641    -0.16200
C1348       C  0.28651652  0.01759105  0.52881292     0.36100
N1349       N  0.29608377  0.03481700  0.55663942    -0.90400
H1350       H  0.26117877  0.96392591  0.54732320     0.17300
H1351       H  0.29908649  0.03518461  0.95539778     0.17200
N1352       N  0.26237212  0.96335324  0.94704404    -0.89500
H1353       H  0.31248989  0.02653413  0.56727487     0.34600
H1354       H  0.27216758  0.02556720  0.56864327     0.39700
H1355       H  0.27398479  0.98207873  0.93010639     0.39300
H1356       H  0.23415238  0.95092778  0.94433892     0.34200
C1357       C  0.18430956  0.57218649  0.46598295    -0.27500
C1358       C  0.17979807  0.55428615  0.49250123    -0.15600
C1359       C  0.17121570  0.56744814  0.51747163     0.35100
C1360       C  0.17290859  0.60115692  0.51641571    -0.27000
C1361       C  0.18277225  0.62160999  0.49072742    -0.16200
C1362       C  0.18615500  0.60585151  0.46486320     0.36100
N1363       N  0.16641164  0.61413520  0.96025306    -0.90400
H1364       H  0.17191101  0.55560535  0.96791495     0.17300
H1365       H  0.16866583  0.61226676  0.53618118     0.17200
N1366       N  0.16229441  0.54752204  0.54414295    -0.89500
H1367       H  0.17374682  0.60848060  0.42294660     0.34600
H1368       H  0.21888734  0.62847562  0.43012675     0.39700
H1369       H  0.13648941  0.54226099  0.55057733     0.39300
H1370       H  0.18109153  0.56402516  0.55990215     0.34200
C1371       C  0.40263594  0.83161498  0.51914625    -0.27500
C1372       C  0.38348121  0.82308752  0.49272647    -0.15600
C1373       C  0.40047464  0.82385833  0.98135974     0.35100
C1374       C  0.43410861  0.82543675  0.98222189    -0.27000
C1375       C  0.45099544  0.82626572  0.49617389    -0.16200
C1376       C  0.43647210  0.83332821  0.52115498     0.36100
N1377       N  0.45498610  0.84022883  0.54857174    -0.90400
H1378       H  0.39015707  0.83453793  0.53863341     0.17300
H1379       H  0.44666119  0.82496567  0.96192145     0.17200
N1380       N  0.38445414  0.82323649  0.95383508    -0.89500
H1381       H  0.44027548  0.84438315  0.56477781     0.34600
H1382       H  0.47977539  0.86458536  0.54661256     0.39700
H1383       H  0.38179542  0.80104699  0.94202632     0.39300
H1384       H  0.40237254  0.84697627  0.94264060     0.34200
C1385       C  0.71909007  0.97999964  0.52639123    -0.27500
C1386       C  0.71233524  0.96254720  0.00175252    -0.15600
C1387       C  0.72950035  0.98285904  0.97648569     0.35100
C1388       C  0.74785749  0.02132899  0.97706422    -0.27000
C1389       C  0.74986745  0.04057639  0.00249148    -0.16200
C1390       C  0.73825712  0.01824937  0.52767625     0.36100
N1391       N  0.74671031  0.03566049  0.55543868    -0.90400
H1392       H  0.71137282  0.96486243  0.54654481     0.17300
H1393       H  0.76086081  0.03618610  0.95744243     0.17200
N1394       N  0.72898273  0.96470130  0.95021769    -0.89500
H1395       H  0.76217830  0.02699495  0.56703606     0.34600
H1396       H  0.72227937  0.02695346  0.56658431     0.39700
H1397       H  0.75593600  0.97376482  0.94418445     0.39300
H1398       H  0.71696395  0.97245928  0.93402178     0.34200
C1399       C  0.02480738  0.28261066  0.52650603    -0.27500
C1400       C  0.04316226  0.29773924  0.50030076    -0.15600
C1401       C  0.02198981  0.29389560  0.47541361     0.35100
C1402       C  0.98357799  0.27394853  0.47687744    -0.27000
C1403       C  0.96520642  0.25799209  0.50292218    -0.16200
C1404       C  0.98641219  0.26304226  0.52806388     0.36100
N1405       N  0.96925741  0.24801931  0.55528589    -0.90400
H1406       H  0.04031836  0.28556176  0.54602491     0.17300
H1407       H  0.96806758  0.27123070  0.45740818     0.17200
N1408       N  0.04197756  0.30280505  0.95197980    -0.89500
H1409       H  0.97716505  0.27211611  0.07292020     0.34600
H1410       H  0.97823779  0.23054438  0.56257472     0.39700
H1411       H  0.03018419  0.32861632  0.44256760     0.39300
H1412       H  0.03062084  0.29049486  0.43279918     0.34200
C1413       C  0.60700192  0.17156768  0.53277989    -0.27500
C1414       C  0.62383109  0.17438774  0.50599510    -0.15600
C1415       C  0.60746275  0.17358837  0.97109682     0.35100
C1416       C  0.57332989  0.17095310  0.97219379    -0.27000
C1417       C  0.55732990  0.17344949  0.50837194    -0.16200
C1418       C  0.57381737  0.17101915  0.53420237     0.36100
N1419       N  0.55817376  0.16995635  0.56191250    -0.90400
H1420       H  0.62080234  0.17253425  0.55282408     0.17300
H1421       H  0.56034681  0.17130502  0.95202981     0.17200
N1422       N  0.62360540  0.17506314  0.94353070    -0.89500
H1423       H  0.57715095  0.19232428  0.57399178     0.34600
H1424       H  0.55365439  0.14634764  0.57261420     0.39700
H1425       H  0.62541399  0.19702916  0.93188029     0.39300
H1426       H  0.60617716  0.15121924  0.93222447     0.34200
C1427       C  0.98451761  0.71893733  0.52839711    -0.27500
C1428       C  0.96487267  0.70526583  0.50237348    -0.15600
C1429       C  0.98605995  0.71286958  0.97532890     0.35100
C1430       C  0.02439679  0.73246128  0.97705627    -0.27000
C1431       C  0.04297291  0.74486885  0.50295147    -0.16200
C1432       C  0.02300174  0.73841917  0.52893930     0.36100
N1433       N  0.04151421  0.75176422  0.55603504    -0.90400
H1434       H  0.96997041  0.71461512  0.54861657     0.17300
H1435       H  0.03987921  0.73790650  0.95720558     0.17200
N1436       N  0.96887405  0.70027045  0.94766926    -0.89500
H1437       H  0.03346011  0.72958358  0.56994626     0.34600
H1438       H  0.03302375  0.76882193  0.56505532     0.39700
H1439       H  0.97780622  0.68345863  0.93886180     0.39300
H1440       H  0.97757178  0.72280674  0.93405119     0.34200
C1441       C  0.74276349  0.71892847  0.52862641    -0.27500
C1442       C  0.74969872  0.70641986  0.50249340    -0.15600
C1443       C  0.73742290  0.71443010  0.47642254     0.35100
C1444       C  0.71891985  0.73433250  0.47699351    -0.27000
C1445       C  0.71164532  0.74652283  0.50314547    -0.16200
C1446       C  0.72399275  0.73857661  0.52921706     0.36100
N1447       N  0.71756545  0.75026055  0.55653954    -0.90400
H1448       H  0.75179484  0.71329368  0.54896076     0.17300
H1449       H  0.70978623  0.73985390  0.45666275     0.17200
N1450       N  0.73391431  0.69435732  0.94903967    -0.89500
H1451       H  0.74274949  0.76671249  0.56657376     0.34600
H1452       H  0.70263226  0.72725415  0.56949965     0.39700
H1453       H  0.75801298  0.72478369  0.43586871     0.39300
H1454       H  0.71775953  0.68559533  0.43946605     0.34200
C1455       C  0.83885263  0.43463831  0.97455066    -0.27500
C1456       C  0.82973043  0.44450975  0.50867722    -0.15600
C1457       C  0.83177691  0.42790939  0.53450938     0.35100
C1458       C  0.83013594  0.39431013  0.53309774    -0.27000
C1459       C  0.82681972  0.37735158  0.50629788    -0.16200
C1460       C  0.83937452  0.40194640  0.97360131     0.36100
N1461       N  0.84204623  0.38729498  0.94627522    -0.90400
H1462       H  0.83868043  0.44774987  0.95443532     0.17300
H1463       H  0.82885006  0.38040800  0.55315635     0.17200
N1464       N  0.83346980  0.44389579  0.56220604    -0.89500
H1465       H  0.86639009  0.38673888  0.94660724     0.34600
H1466       H  0.84424110  0.40456198  0.92926425     0.39700
H1467       H  0.85692088  0.44778696  0.57289994     0.39300
H1468       H  0.81087058  0.42545359  0.57432174     0.34200
C1469       C  0.60697747  0.42860132  0.48539069    -0.27500
C1470       C  0.62640567  0.44055954  0.51156240    -0.15600
C1471       C  0.60927313  0.42301616  0.53764917     0.35100
C1472       C  0.57568272  0.39080071  0.53654392    -0.27000
C1473       C  0.55904324  0.37583257  0.50984805    -0.16200
C1474       C  0.57317515  0.39649063  0.48437360     0.36100
N1475       N  0.55413478  0.38432878  0.45733191    -0.90400
H1476       H  0.61895117  0.44288898  0.46533917     0.17300
H1477       H  0.56420580  0.37609112  0.55654702     0.17200
N1478       N  0.62665623  0.43639419  0.56515205    -0.89500
H1479       H  0.57113141  0.38142425  0.44254812     0.34600
H1480       H  0.54921921  0.40458283  0.44953450     0.39700
H1481       H  0.62991369  0.41608557  0.57510245     0.39300
H1482       H  0.60931212  0.44121416  0.57806755     0.34200
C1483       C  0.47454859  0.33828447  0.62330443    -0.27500
C1484       C  0.43760469  0.31330097  0.61721420    -0.15600
C1485       C  0.41051123  0.31603029  0.63268102     0.35100
C1486       C  0.42111708  0.34241637  0.65480092    -0.27000
C1487       C  0.45821189  0.36623251  0.66153825    -0.16200
C1488       C  0.48498761  0.36438714  0.64508092     0.36100
N1489       N  0.52296876  0.38895852  0.65023458    -0.90400
H1490       H  0.49608252  0.33748040  0.61137731     0.17300
H1491       H  0.40024453  0.34400295  0.66707705     0.17200
N1492       N  0.37263326  0.29198779  0.62628110    -0.89500
H1493       H  0.53455748  0.40313960  0.63102500     0.34600
H1494       H  0.53527521  0.37362260  0.65529943     0.39700
H1495       H  0.36785711  0.29793383  0.60527728     0.39300
H1496       H  0.35627111  0.29723299  0.64003810     0.34200
C1497       C  0.42471533  0.34225545  0.85038227    -0.27500
C1498       C  0.46095046  0.37107733  0.84773156    -0.15600
C1499       C  0.48644256  0.37521586  0.86926544     0.35100
C1500       C  0.47599655  0.34928061  0.89132608    -0.27000
C1501       C  0.44049411  0.31886085  0.89273525    -0.16200
C1502       C  0.41415804  0.31620645  0.87269847     0.36100
N1503       N  0.37728389  0.28652420  0.87429178    -0.90400
H1504       H  0.40463300  0.33936181  0.83444496     0.17300
H1505       H  0.49637072  0.35252251  0.90711417     0.17200
N1506       N  0.52290137  0.40555562  0.86966371    -0.89500
H1507       H  0.36169024  0.28795040  0.85730105     0.34600
H1508       H  0.36601552  0.28969553  0.89342254     0.39700
H1509       H  0.52175246  0.42955573  0.86953170     0.39300
H1510       H  0.53653629  0.40467973  0.85114853     0.34200
C1511       C  0.66378999  0.52683496  0.62180730    -0.27500
C1512       C  0.68979923  0.56379021  0.61689733    -0.15600
C1513       C  0.68797616  0.59063429  0.63338709     0.35100
C1514       C  0.66094709  0.57978139  0.65488962    -0.27000
C1515       C  0.63617097  0.54268621  0.66057257    -0.16200
C1516       C  0.63725686  0.51600767  0.64337375     0.36100
N1517       N  0.61161003  0.47801466  0.64780390    -0.90400
H1518       H  0.66422084  0.50576457  0.60895359     0.17300
H1519       H  0.65997530  0.60050122  0.66784620     0.17200
N1520       N  0.71352579  0.62852472  0.62863633    -0.89500
H1521       H  0.61694689  0.46186971  0.63388203     0.34600
H1522       H  0.58581432  0.47358631  0.64216535     0.39700
H1523       H  0.73914850  0.63335754  0.63528526     0.39300
H1524       H  0.70735479  0.64468690  0.64181516     0.34200
C1525       C  0.69730256  0.58696437  0.86631158    -0.27500
C1526       C  0.68911649  0.56233330  0.88915126    -0.15600
C1527       C  0.65572865  0.52873697  0.88868541     0.35100
C1528       C  0.63240163  0.51975587  0.86468885    -0.27000
C1529       C  0.64092307  0.54404850  0.84167859    -0.16200
C1530       C  0.67345799  0.57812412  0.84262318     0.36100
N1531       N  0.68304583  0.60329434  0.81907257    -0.90400
H1532       H  0.72288034  0.61252254  0.86625518     0.17300
H1533       H  0.60701917  0.49399678  0.86424929     0.17200
N1534       N  0.64555127  0.50378892  0.91262476    -0.89500
H1535       H  0.70811639  0.60844932  0.81080820     0.34600
H1536       H  0.68638172  0.62768535  0.82731124     0.39700
H1537       H  0.62043972  0.48034879  0.90874134     0.39300
H1538       H  0.64200807  0.51646179  0.93072183     0.34200
C1539       C  0.58958014  0.68102441  0.62671047    -0.27500
C1540       C  0.56649377  0.69472752  0.62052426    -0.15600
C1541       C  0.53372518  0.68183988  0.63651969     0.35100
C1542       C  0.52412851  0.65447342  0.65733389    -0.27000
C1543       C  0.54671567  0.64008445  0.66312111    -0.16200
C1544       C  0.57991933  0.65369447  0.64770294     0.36100
N1545       N  0.60349895  0.63918246  0.65261455    -0.90400
H1546       H  0.61447749  0.69047108  0.61444105     0.17300
H1547       H  0.49906175  0.64473513  0.66941404     0.17200
N1548       N  0.51026136  0.69671097  0.63169842    -0.89500
H1549       H  0.62904627  0.66055550  0.65884016     0.34600
H1550       H  0.60659324  0.62871084  0.63301624     0.39700
H1551       H  0.52458230  0.72402964  0.63798050     0.39300
H1552       H  0.48714531  0.68392636  0.64486365     0.34200
C1553       C  0.52478972  0.65274405  0.84917078    -0.27500
C1554       C  0.54689914  0.63763617  0.84421636    -0.15600
C1555       C  0.57931159  0.65008058  0.86071158     0.35100
C1556       C  0.58868819  0.67741159  0.88177587    -0.27000
C1557       C  0.56612959  0.69202874  0.88691127    -0.16200
C1558       C  0.53417340  0.68002075  0.86996445     0.36100
N1559       N  0.51147548  0.69593746  0.87363938    -0.90400
H1560       H  0.50038532  0.64384166  0.83626243     0.17300
H1561       H  0.61290976  0.68635525  0.89492916     0.17200
N1562       N  0.60222697  0.63453665  0.85648174    -0.89500
H1563       H  0.48891947  0.68381883  0.85976775     0.34600
H1564       H  0.52676485  0.72325011  0.86747528     0.39700
H1565       H  0.58738883  0.60724970  0.86279960     0.39300
H1566       H  0.62507023  0.64699358  0.87004011     0.34200
C1567       C  0.33969422  0.42460506  0.65736892    -0.27500
C1568       C  0.36726859  0.46120510  0.66101640    -0.15600
C1569       C  0.36977644  0.48722939  0.64095900     0.35100
C1570       C  0.34485703  0.47645095  0.61797385    -0.27000
C1571       C  0.31672952  0.43998470  0.61449485    -0.16200
C1572       C  0.31432411  0.41371248  0.63442249     0.36100
N1573       N  0.28578857  0.37643350  0.63189437    -0.90400
H1574       H  0.33756324  0.40435209  0.67275208     0.17300
H1575       H  0.34749184  0.49720080  0.60289463     0.17200
N1576       N  0.39779116  0.52458098  0.64352906    -0.89500
H1577       H  0.28697721  0.36099866  0.64908306     0.34600
H1578       H  0.29065427  0.36595432  0.61303157     0.39700
H1579       H  0.38530916  0.54034934  0.64523539     0.39300
H1580       H  0.41313547  0.53208936  0.62445884     0.34200
C1581       C  0.37450912  0.48814868  0.86559245    -0.27500
C1582       C  0.36895283  0.46089523  0.84589672    -0.15600
C1583       C  0.34026606  0.42477445  0.85090979     0.35100
C1584       C  0.31703504  0.41724596  0.87487356    -0.27000
C1585       C  0.32183523  0.44482603  0.89403771    -0.16200
C1586       C  0.35194715  0.48050286  0.88989573     0.36100
N1587       N  0.35973562  0.50900896  0.91036983    -0.90400
H1588       H  0.39702667  0.51553078  0.86228918     0.17300
H1589       H  0.29435152  0.38993307  0.87801396     0.17200
N1590       N  0.33410491  0.39593798  0.83132453    -0.89500
H1591       H  0.38229358  0.53356666  0.90385304     0.34600
H1592       H  0.36700290  0.50186243  0.92993120     0.39700
H1593       H  0.32577076  0.40128525  0.81147832     0.39300
H1594       H  0.31269898  0.37101970  0.83857512     0.34200
C1595       C  0.92656758  0.58315095  0.65751022    -0.27500
C1596       C  0.92135322  0.54765930  0.65747123    -0.15600
C1597       C  0.90418752  0.52489235  0.63351975     0.35100
C1598       C  0.89077741  0.53709537  0.61123594    -0.27000
C1599       C  0.89292107  0.57127225  0.61249884    -0.16200
C1600       C  0.91222014  0.59503215  0.63549193     0.36100
N1601       N  0.91628900  0.63046397  0.63782557    -0.90400
H1602       H  0.94059095  0.60135451  0.67545035     0.17300
H1603       H  0.87686829  0.51873451  0.59334163     0.17200
N1604       N  0.90019591  0.48948846  0.63101524    -0.89500
H1605       H  0.89042005  0.62768811  0.63896999     0.34600
H1606       H  0.92945233  0.64525112  0.61921192     0.39700
H1607       H  0.88380378  0.47319154  0.64794095     0.39300
H1608       H  0.92595843  0.49207151  0.63275279     0.34200
C1609       C  0.87252101  0.52821710  0.88219727    -0.27500
C1610       C  0.88422341  0.56505512  0.88818282    -0.15600
C1611       C  0.91328358  0.59220727  0.87195838     0.35100
C1612       C  0.92857375  0.58169843  0.84940820    -0.27000
C1613       C  0.91518758  0.54467485  0.84261761    -0.16200
C1614       C  0.88738136  0.51790904  0.85973138     0.36100
N1615       N  0.87406961  0.48005490  0.85459906    -0.90400
H1616       H  0.85089693  0.50661467  0.89470183     0.17300
H1617       H  0.95055141  0.60261045  0.83669167     0.17200
N1618       N  0.92728565  0.63002149  0.87832906    -0.89500
H1619       H  0.84610313  0.46742844  0.85041519     0.34600
H1620       H  0.87775681  0.46875847  0.87355777     0.39700
H1621       H  0.90724278  0.63630015  0.87255750     0.39300
H1622       H  0.94990248  0.64631361  0.86536006     0.34200
C1623       C  0.88225932  0.34606235  0.61403622    -0.27500
C1624       C  0.88770768  0.31592803  0.61306106    -0.15600
C1625       C  0.91133398  0.31391721  0.63360520     0.35100
C1626       C  0.92662742  0.34032528  0.65552331    -0.27000
C1627       C  0.91865150  0.36872045  0.65772525    -0.16200
C1628       C  0.89725682  0.37226701  0.63609242     0.36100
N1629       N  0.89073673  0.40233776  0.63654466    -0.90400
H1630       H  0.86522099  0.34879691  0.59786690     0.17300
H1631       H  0.94386095  0.33777641  0.67161628     0.17200
N1632       N  0.91938644  0.28500371  0.63346583    -0.89500
H1633       H  0.87407894  0.40072409  0.61919585     0.34600
H1634       H  0.91580012  0.42608546  0.63341468     0.39700
H1635       H  0.93094800  0.28509467  0.61346087     0.39300
H1636       H  0.89507501  0.26031399  0.63596046     0.34200
C1637       C  0.92585647  0.34187466  0.84786000    -0.27500
C1638       C  0.91682026  0.36944646  0.84464140    -0.15600
C1639       C  0.89523952  0.37313913  0.86585636     0.35100
C1640       C  0.88157207  0.34807478  0.88879690    -0.27000
C1641       C  0.88861380  0.31898030  0.89114589    -0.16200
C1642       C  0.91192465  0.31663915  0.87065338     0.36100
N1643       N  0.92109890  0.28853996  0.87177557    -0.90400
H1644       H  0.94308152  0.33912410  0.83197845     0.17300
H1645       H  0.86431559  0.35084446  0.90457536     0.17200
N1646       N  0.88721036  0.40216952  0.86410174    -0.89500
H1647       H  0.89715337  0.26336118  0.87005873     0.34600
H1648       H  0.93342496  0.29004383  0.89177690     0.39700
H1649       H  0.91173586  0.42666514  0.86668614     0.39300
H1650       H  0.87039613  0.40063439  0.88121087     0.34200
C1651       C  0.15465011  0.46892405  0.63328427    -0.27500
C1652       C  0.13308284  0.43600241  0.61837051    -0.15600
C1653       C  0.09651997  0.41361348  0.62674041     0.35100
C1654       C  0.08209090  0.42528510  0.64886195    -0.27000
C1655       C  0.10345277  0.45895349  0.66312728    -0.16200
C1656       C  0.14048916  0.48054304  0.65537215     0.36100
N1657       N  0.16472001  0.51411906  0.66961178    -0.90400
H1658       H  0.18304382  0.48626879  0.62752202     0.17300
H1659       H  0.05371983  0.40796612  0.65465159     0.17200
N1660       N  0.07319933  0.37964693  0.61266422    -0.89500
H1661       H  0.16497259  0.50916556  0.69179302     0.34600
H1662       H  0.15542995  0.53241396  0.66626199     0.39700
H1663       H  0.08432510  0.36279373  0.61546747     0.39300
H1664       H  0.07255163  0.38448330  0.59050114     0.34200
C1665       C  0.11520537  0.48487595  0.86856858    -0.27500
C1666       C  0.09634903  0.45893683  0.84706670    -0.15600
C1667       C  0.09141090  0.42360412  0.85033515     0.35100
C1668       C  0.10674025  0.41543165  0.87423898    -0.27000
C1669       C  0.12684875  0.44183254  0.89521712    -0.16200
C1670       C  0.12994438  0.47659960  0.89269740     0.36100
N1671       N  0.14804586  0.50379947  0.91459813    -0.90400
H1672       H  0.11835031  0.51173734  0.86679250     0.17300
H1673       H  0.10398115  0.38872613  0.87575774     0.17200
N1674       N  0.07204028  0.39622612  0.82885049    -0.89500
H1675       H  0.12956086  0.51102214  0.92269971     0.34600
H1676       H  0.16949560  0.52681110  0.90487176     0.39700
H1677       H  0.05032568  0.37390185  0.83903398     0.39300
H1678       H  0.08960275  0.38787958  0.82062549     0.34200
C1679       C  0.08627660  0.65716222  0.65085181    -0.27500
C1680       C  0.10323511  0.63781577  0.66088015    -0.15600
C1681       C  0.13549173  0.64395842  0.64744165     0.35100
C1682       C  0.15010112  0.66886262  0.62464426    -0.27000
C1683       C  0.13339140  0.68827509  0.61451685    -0.16200
C1684       C  0.10094412  0.68223669  0.62773655     0.36100
N1685       N  0.08287851  0.70113465  0.61763709    -0.90400
H1686       H  0.06133890  0.65263990  0.66096491     0.17300
H1687       H  0.17515198  0.67307020  0.61495635     0.17200
N1688       N  0.15375566  0.62508654  0.65676817    -0.89500
H1689       H  0.05954745  0.69385325  0.62994161     0.34600
H1690       H  0.07395913  0.69241450  0.59645687     0.39700
H1691       H  0.18023351  0.64441033  0.66305107     0.39300
H1692       H  0.15552337  0.61070875  0.63907429     0.34200
C1693       C  0.14361457  0.66373197  0.88365308    -0.27500
C1694       C  0.12789643  0.68463535  0.89230706    -0.15600
C1695       C  0.09632020  0.67942302  0.87776695     0.35100
C1696       C  0.08195196  0.65435522  0.85486566    -0.27000
C1697       C  0.09845172  0.63427565  0.84588105    -0.16200
C1698       C  0.12939375  0.63892673  0.86079073     0.36100
N1699       N  0.14672899  0.61869024  0.85288168    -0.90400
H1700       H  0.16771680  0.66679218  0.89441448     0.17300
H1701       H  0.05782492  0.65089107  0.84386104     0.17200
N1702       N  0.07803911  0.69867392  0.88579985    -0.89500
H1703       H  0.14676732  0.60388351  0.87099274     0.34600
H1704       H  0.17379831  0.63715707  0.84748153     0.39700
H1705       H  0.09587372  0.72649241  0.88282020     0.39300
H1706       H  0.07103502  0.69370423  0.90771794     0.34200
C1707       C  0.37666853  0.88863859  0.63628465    -0.27500
C1708       C  0.36693097  0.90185873  0.66029790    -0.15600
C1709       C  0.33331340  0.90120187  0.66014822     0.35100
C1710       C  0.30992592  0.88720745  0.63607062    -0.27000
C1711       C  0.31951407  0.87371644  0.61205341    -0.16200
C1712       C  0.35354151  0.87499351  0.61210579     0.36100
N1713       N  0.36500797  0.86286685  0.58744149    -0.90400
H1714       H  0.40270453  0.88965117  0.63598038     0.17300
H1715       H  0.28370623  0.88575862  0.63663435     0.17200
N1716       N  0.32225726  0.91358007  0.68488054    -0.89500
H1717       H  0.36989565  0.84220830  0.59420173     0.34600
H1718       H  0.38959981  0.88460318  0.58000136     0.39700
H1719       H  0.29767159  0.89196838  0.69246062     0.39300
H1720       H  0.31747623  0.93430240  0.67811710     0.34200
C1721       C  0.35862350  0.87027985  0.85423764    -0.27500
C1722       C  0.36182756  0.90118367  0.84081471    -0.15600
C1723       C  0.33884333  0.91454282  0.85004221     0.35100
C1724       C  0.31431754  0.89748095  0.87310080    -0.27000
C1725       C  0.31185265  0.86696369  0.88695406    -0.16200
C1726       C  0.33393713  0.85294410  0.87677988     0.36100
N1727       N  0.33125810  0.82060898  0.88884558    -0.90400
H1728       H  0.37540395  0.85917931  0.84720462     0.17300
H1729       H  0.29726769  0.90824586  0.88018169     0.17200
N1730       N  0.33977893  0.94502650  0.83594007    -0.89500
H1731       H  0.35695116  0.82698041  0.89662895     0.34600
H1732       H  0.32407836  0.80148276  0.87222542     0.39700
H1733       H  0.34521839  0.96482915  0.85161547     0.39300
H1734       H  0.31384291  0.93654062  0.82748270     0.34200
C1735       C  0.58247921  0.91451666  0.65858177    -0.27500
C1736       C  0.54598078  0.90637617  0.66107318    -0.15600
C1737       C  0.52105881  0.88583017  0.63902954     0.35100
C1738       C  0.53249149  0.87271096  0.61607593    -0.27000
C1739       C  0.56840399  0.87903706  0.61424606    -0.16200
C1740       C  0.59398509  0.90107139  0.63541008     0.36100
N1741       N  0.63104225  0.90891021  0.63387520    -0.90400
H1742       H  0.60206109  0.93093864  0.67509621     0.17300
H1743       H  0.51248001  0.85660404  0.59970480     0.17200
N1744       N  0.48414284  0.87829072  0.63889727    -0.89500
H1745       H  0.64601789  0.92465054  0.65161960     0.34600
H1746       H  0.64273190  0.92494093  0.61546077     0.39700
H1747       H  0.48424053  0.90290545  0.63995837     0.39300
H1748       H  0.47069095  0.86244159  0.65698725     0.34200
C1749       C  0.57933561  0.91480994  0.84961712    -0.27500
C1750       C  0.54261001  0.90557831  0.84654414    -0.15600
C1751       C  0.51678959  0.88193745  0.86670916     0.35100
C1752       C  0.52815960  0.86763963  0.88916124    -0.27000
C1753       C  0.56472128  0.87586287  0.89181261    -0.16200
C1754       C  0.59059735  0.89981351  0.87174731     0.36100
N1755       N  0.62786465  0.90828983  0.87338595    -0.90400
H1756       H  0.59930151  0.93301449  0.83408414     0.17300
H1757       H  0.50792770  0.84948525  0.90455189     0.17200
N1758       N  0.47925527  0.87259688  0.86448243    -0.89500
H1759       H  0.64355288  0.92737486  0.85755485     0.34600
H1760       H  0.62834949  0.88456475  0.86836049     0.39700
H1761       H  0.47813744  0.89628882  0.86810323     0.39300
H1762       H  0.46365873  0.85426137  0.88077855     0.34200
C1763       C  0.69071185  0.09217600  0.63295578    -0.27500
C1764       C  0.68578926  0.11331785  0.61212449    -0.15600
C1765       C  0.65400890  0.11636065  0.61358853     0.35100
C1766       C  0.63044041  0.10216952  0.63733326    -0.27000
C1767       C  0.63661802  0.08320330  0.65921689    -0.16200
C1768       C  0.66616954  0.07670355  0.65625085     0.36100
N1769       N  0.67222455  0.05552994  0.67734434    -0.90400
H1770       H  0.71444300  0.08895796  0.63194820     0.17300
H1771       H  0.60701815  0.10589776  0.63852230     0.17200
N1772       N  0.64552782  0.13413912  0.59101277    -0.89500
H1773       H  0.69823318  0.07168682  0.68617761     0.34600
H1774       H  0.67177730  0.03363775  0.66665046     0.39700
H1775       H  0.64386138  0.15572235  0.60020778     0.39300
H1776       H  0.61991059  0.11559325  0.58255546     0.34200
C1777       C  0.66342618  0.13178956  0.88513997    -0.27500
C1778       C  0.69250909  0.12477017  0.88766107    -0.15600
C1779       C  0.69475068  0.10109163  0.86765052     0.35100
C1780       C  0.66849738  0.08553911  0.84542117    -0.27000
C1781       C  0.64020095  0.09365326  0.84249342    -0.16200
C1782       C  0.63769177  0.11683498  0.86278342     0.36100
N1783       N  0.60876850  0.12489575  0.86113634    -0.90400
H1784       H  0.66073285  0.14961640  0.90042396     0.17300
H1785       H  0.67074335  0.06755708  0.83001439     0.17200
N1786       N  0.72391344  0.09342603  0.86929134    -0.89500
H1787       H  0.62037535  0.15310151  0.85942753     0.34600
H1788       H  0.59413993  0.11661535  0.88054076     0.39700
H1789       H  0.73817387  0.10133559  0.84970791     0.39300
H1790       H  0.71254129  0.06529343  0.87141402     0.34200
C1791       C  0.46842298  0.09081884  0.63475636    -0.27500
C1792       C  0.45606094  0.08969961  0.66295430    -0.15600
C1793       C  0.42902675  0.09927155  0.66804986     0.35100
C1794       C  0.41648429  0.11173392  0.64508566    -0.27000
C1795       C  0.42992998  0.11415365  0.61699184    -0.16200
C1796       C  0.45541309  0.10253785  0.61175106     0.36100
N1797       N  0.46804695  0.10171331  0.58313035    -0.90400
H1798       H  0.48783996  0.08191761  0.63049326     0.17300
H1799       H  0.39757026  0.12122731  0.64947340     0.17200
N1800       N  0.41483173  0.09780466  0.69648167    -0.89500
H1801       H  0.48267152  0.12811536  0.57495049     0.34600
H1802       H  0.44537905  0.08642789  0.56984986     0.39700
H1803       H  0.43662428  0.11361680  0.71040304     0.39300
H1804       H  0.40176502  0.07089484  0.70374154     0.34200
C1805       C  0.41784070  0.08742209  0.87994472    -0.27500
C1806       C  0.43597881  0.12540549  0.88130524    -0.15600
C1807       C  0.46471165  0.14609190  0.86167838     0.35100
C1808       C  0.47569745  0.12844805  0.84194637    -0.27000
C1809       C  0.45821747  0.09053458  0.84086996    -0.16200
C1810       C  0.42881888  0.06967343  0.85999510     0.36100
N1811       N  0.41095957  0.03063545  0.85973321    -0.90400
H1812       H  0.39639160  0.07167007  0.89538457     0.17300
H1813       H  0.49762142  0.14443692  0.82693407     0.17200
N1814       N  0.48282915  0.18518215  0.86200085    -0.89500
H1815       H  0.39041416  0.01963078  0.87538100     0.34600
H1816       H  0.43017283  0.02333476  0.86583786     0.39700
H1817       H  0.46366843  0.19262437  0.85607031     0.39300
H1818       H  0.50347409  0.19632617  0.84643353     0.34200
loop_ 
_geom_bond_atom_site_label_1 
_geom_bond_atom_site_label_2 
_geom_bond_distance 
_geom_bond_site_symmetry_2 
_ccdc_geom_bond_type 
N1            N2   1.327       .  A
N1            N7   1.315       .  A
N1          Mn30   2.247       .  S
N2            C9   1.363       .  A
N3            N5   1.316       .  A
N3            N4   1.313       .  A
N3          Mn19   2.152   1_565  S
N4           C10   1.342       .  A
N5            N6   1.326       .  A
N5          Mn30   2.244       .  S
N6           C10   1.362       .  A
N7            N8   1.313       .  A
N7          Mn19   2.149   1_565  S
N8            C9   1.341       .  A
C9          C813   1.475       .  S
C10         C799   1.472       .  S
N11          N17   1.315       .  A
N11          N12   1.325       .  A
N11         Mn41   2.222       .  S
N12          C20   1.358       .  A
N13          N14   1.313       .  A
N13          N15   1.315       .  A
N13         Mn19   2.152       .  S
N14          C21   1.342       .  A
N15          N16   1.325       .  A
N15         Mn41   2.239       .  S
N16          C21   1.362       .  A
N17          N18   1.313       .  A
N17         Mn19   2.160       .  S
N18          C20   1.342       .  A
Mn19        Cl43   2.511       .  S
C20         C883   1.462       .  S
C21         C900   1.475       .  S
N22          N23   1.325       .  A
N22          N28   1.314       .  A
N22         Mn30   2.243       .  S
N23          C31   1.363       .  A
N24          N26   1.315       .  A
N24          N25   1.315       .  A
N24         Mn42   2.167   1_565  S
N25          C32   1.345       .  A
N26          N27   1.327       .  A
N26         Mn30   2.246       .  S
N27          C32   1.364       .  A
N28          N29   1.317       .  A
N28         Mn42   2.164   1_565  S
N29          C31   1.347       .  A
Mn30        Cl43   2.571   1_565  S
C31         C827   1.493       .  S
C32         C841   1.488       .  S
N33          N34   1.326       .  A
N33          N39   1.315       .  A
N33         Mn41   2.233       .  S
N34          C44   1.361       .  A
N35          N36   1.314       .  A
N35          N37   1.315       .  A
N35         Mn42   2.164       .  S
N36          C45   1.344       .  A
N37          N38   1.328       .  A
N37         Mn41   2.244       .  S
N38          C45   1.363       .  A
N39          N40   1.313       .  A
N39         Mn42   2.156       .  S
N40          C44   1.343       .  A
Mn41        Cl43   2.575       .  S
Mn42        Cl43   2.516       .  S
C44         C872   1.473       .  S
C45         C858   1.485       .  S
N46          N47   1.325       .  A
N46          N52   1.314       .  A
N46         Mn75   2.231       .  S
N47          C54   1.362       .  A
N48          N50   1.314       .  A
N48          N49   1.312       .  A
N48         Mn64   2.149       .  S
N49          C55   1.341       .  A
N50          N51   1.326       .  A
N50         Mn75   2.237       .  S
N51          C55   1.362       .  A
N52          N53   1.314       .  A
N52         Mn64   2.161       .  S
N53          C54   1.345       .  A
C54         C704   1.480       .  S
C55         C687   1.473       .  S
N56          N62   1.315       .  A
N56          N57   1.327       .  A
N56         Mn86   2.249       .  S
N57          C65   1.363       .  A
N58          N59   1.313       .  A
N58          N60   1.316       .  A
N58         Mn64   2.150   1_455  S
N59          C66   1.341       .  A
N60          N61   1.327       .  A
N60         Mn86   2.249       .  S
N61          C66   1.362       .  A
N62          N63   1.315       .  A
N62         Mn64   2.160   1_455  S
N63          C65   1.344       .  A
Mn64        Cl88   2.517       .  S
C65         C771   1.482       .  S
C66         C788   1.470       .  S
N67          N68   1.323       .  A
N67          N73   1.313       .  A
N67         Mn75   2.229       .  S
N68          C76   1.362       .  A
N69          N71   1.315       .  A
N69          N70   1.315       .  A
N69         Mn87   2.164   1_655  S
N70          C77   1.345       .  A
N71          N72   1.326       .  A
N71         Mn75   2.240       .  S
N72          C77   1.362       .  A
N73          N74   1.313       .  A
N73         Mn87   2.147   1_655  S
N74          C76   1.343       .  A
Mn75        Cl88   2.570       .  S
C76         C718   1.478       .  S
C77         C729   1.482       .  S
N78          N79   1.326       .  A
N78          N84   1.316       .  A
N78         Mn86   2.247       .  S
N79          C89   1.363       .  A
N80          N81   1.313       .  A
N80          N82   1.315       .  A
N80         Mn87   2.155       .  S
N81          C90   1.342       .  A
N82          N83   1.327       .  A
N82         Mn86   2.246       .  S
N83          C90   1.363       .  A
N84          N85   1.313       .  A
N84         Mn87   2.149       .  S
N85          C89   1.341       .  A
Mn86        Cl88   2.569   1_455  S
Mn87        Cl88   2.517   1_455  S
C89         C757   1.475       .  S
C90         C746   1.480       .  S
N91          N92   1.322       .  A
N91          N97   1.314       .  A
N91        Mn120   2.220       .  S
N92          C99   1.359       .  A
N93          N95   1.314       .  A
N93          N94   1.315       .  A
N93        Mn109   2.166       .  S
N94         C100   1.346       .  A
N95          N96   1.324       .  A
N95        Mn120   2.226       .  S
N96         C100   1.361       .  A
N97          N98   1.316       .  A
N97        Mn109   2.169       .  S
N98          C99   1.348       .  A
C99         C589   1.483       .  S
C100        C578   1.484       .  S
N101        N107   1.315       .  A
N101        N102   1.324       .  A
N101       Mn131   2.230       .  S
N102        C110   1.361       .  A
N103        N104   1.315       .  A
N103        N105   1.316       .  A
N103       Mn109   2.164       .  S
N104        C111   1.344       .  A
N105        N106   1.327       .  A
N105       Mn131   2.247       .  S
N106        C111   1.363       .  A
N107        N108   1.313       .  A
N107       Mn109   2.158       .  S
N108        C110   1.343       .  A
Mn109      Cl133   2.520       .  S
C110        C659   1.477       .  S
C111        C673   1.483       .  S
N112        N113   1.321       .  A
N112        N118   1.315       .  A
N112       Mn120   2.217       .  S
N113        C121   1.358       .  A
N114        N116   1.314       .  A
N114        N115   1.311       .  A
N114       Mn132   2.147       .  S
N115        C122   1.341       .  A
N116        N117   1.324       .  A
N116       Mn120   2.226       .  S
N117        C122   1.361       .  A
N118        N119   1.315       .  A
N118       Mn132   2.168       .  S
N119        C121   1.347       .  A
Mn120      Cl133   2.568       .  S
C121        C606   1.477       .  S
C122        C620   1.473       .  S
N123        N124   1.323       .  A
N123        N129   1.315       .  A
N123       Mn131   2.229       .  S
N124        C134   1.360       .  A
N125        N126   1.316       .  A
N125        N127   1.315       .  A
N125       Mn132   2.160       .  S
N126        C135   1.344       .  A
N127        N128   1.327       .  A
N127       Mn131   2.247       .  S
N128        C135   1.363       .  A
N129        N130   1.316       .  A
N129       Mn132   2.168       .  S
N130        C134   1.346       .  A
Mn131      Cl133   2.567       .  S
Mn132      Cl133   2.519       .  S
C134        C645   1.478       .  S
C135        C634   1.481       .  S
N136        N137   1.330       .  A
N136        N142   1.313       .  A
N136       Mn165   2.247       .  S
N137        C144   1.366       .  A
N138        N140   1.314       .  A
N138        N139   1.305       .  A
N138       Mn154   2.133       .  S
N139        C145   1.337       .  A
N140        N141   1.329       .  A
N140       Mn165   2.242       .  S
N141        C145   1.366       .  A
N142        N143   1.307       .  A
N142       Mn154   2.136       .  S
N143        C144   1.340       .  A
C144        C701   1.485       .  S
C145        C617   1.480       .  S
N146        N147   1.317       .  A
N146       N1061   1.307   1_554  A
N146       Mn176   2.164       .  S
N147        C155   1.351       .  A
N148        N149   1.315       .  A
N148       N1059   1.306       .  A
N148       Mn154   2.164       .  S
N149       C1065   1.352       .  A
N150        N151   1.316       .  A
N150       N1057   1.307   1_554  A
N150       Mn176   2.166       .  S
N151        C156   1.351       .  A
N152        N153   1.318       .  A
N152       N1055   1.307       .  A
N152       Mn154   2.173       .  S
N153       C1064   1.353       .  A
Mn154     Cl1087   2.516       .  S
C155       N1062   1.352   1_554  A
C155        C561   1.469       .  S
C156       N1058   1.355   1_554  A
C156        C547   1.474       .  S
N157        N158   1.325       .  A
N157       N1072   1.320       .  A
N157       Mn165   2.241       .  S
N158       C1075   1.358       .  A
N159        N160   1.322       .  A
N159       N1070   1.319   1_554  A
N159       Mn177   2.220       .  S
N160       C1076   1.355       .  A
N161        N162   1.324       .  A
N161       N1068   1.320       .  A
N161       Mn165   2.235       .  S
N162        C167   1.357       .  A
N163        N164   1.326       .  A
N163       N1066   1.321   1_554  A
N163       Mn177   2.238       .  S
N164        C166   1.358       .  A
Mn165     Cl1087   2.557       .  S
C166       N1067   1.359   1_554  A
C166        C533   1.510       .  S
C167       N1069   1.357       .  A
C167       C1428   1.505       .  S
N168        N169   1.307       .  A
N168        N174   1.313       .  A
N168       Mn176   2.136       .  S
N169        C179   1.340       .  A
N170        N171   1.329       .  A
N170        N172   1.313       .  A
N170       Mn177   2.237       .  S
N171        C180   1.365       .  A
N172        N173   1.307       .  A
N172       Mn176   2.141       .  S
N173        C180   1.341       .  A
N174        N175   1.329       .  A
N174       Mn177   2.246       .  S
N175        C179   1.365       .  A
Mn176      Cl178   2.521       .  S
Mn177      Cl178   2.559       .  S
Cl178     Mn1063   2.522   1_554  S
Cl178     Mn1074   2.557   1_554  S
C179        C690   1.478       .  S
C180        C603   1.482       .  S
N181        N182   1.329       .  A
N181        N187   1.314       .  A
N181       Mn210   2.243       .  S
N182        C189   1.365       .  A
N183        N185   1.314       .  A
N183        N184   1.311       .  A
N183       Mn199   2.156       .  S
N184        C190   1.344       .  A
N185        N186   1.329       .  A
N185       Mn210   2.243       .  S
N186        C190   1.365       .  A
N187        N188   1.308       .  A
N187       Mn199   2.142       .  S
N188        C189   1.340       .  A
C189        C869   1.479       .  S
C190        C732   1.489       .  S
N191        N192   1.318       .  A
N191       N1106   1.307   1_554  A
N191       Mn221   2.180       .  S
N192        C200   1.354   1_554  A
N193        N194   1.317       .  A
N193       N1104   1.308       .  A
N193       Mn199   2.176       .  S
N194       C1110   1.352       .  A
N195        N196   1.315       .  A
N195       N1102   1.307   1_554  A
N195       Mn221   2.161       .  S
N196        C201   1.351   1_554  A
N197        N198   1.315       .  A
N197       N1100   1.308       .  A
N197       Mn199   2.164       .  S
N198       C1109   1.350       .  A
Mn199     Cl1132   2.523       .  S
C200       N1107   1.351       .  A
C200        C550   1.475       .  S
C201       N1103   1.352       .  A
C201        C505   1.469       .  S
N202        N203   1.325       .  A
N202       N1117   1.320       .  A
N202       Mn210   2.233       .  S
N203       C1120   1.357       .  A
N204        N205   1.324       .  A
N204       N1115   1.321   1_554  A
N204       Mn222   2.235       .  S
N205       C1121   1.356       .  A
N206        N207   1.325       .  A
N206       N1113   1.320       .  A
N206       Mn210   2.231       .  S
N207        C212   1.357       .  A
N208        N209   1.328       .  A
N208       N1111   1.321   1_554  A
N208       Mn222   2.246       .  S
N209        C211   1.359       .  A
Mn210     Cl1132   2.559       .  S
C211       N1112   1.358   1_554  A
C211        C494   1.512       .  S
C212       N1114   1.355       .  A
C212        C480   1.500       .  S
N213        N214   1.312       .  A
N213        N219   1.315       .  A
N213       Mn221   2.150       .  S
N214        C224   1.341       .  A
N215        N216   1.330       .  A
N215        N217   1.312       .  A
N215       Mn222   2.243       .  S
N216        C225   1.366       .  A
N217        N218   1.304       .  A
N217       Mn221   2.131       .  S
N218        C225   1.339       .  A
N219        N220   1.332       .  A
N219       Mn222   2.269       .  S
N220        C224   1.368       .  A
Mn221      Cl223   2.526       .  S
Mn222      Cl223   2.558       .  S
Cl223     Mn1108   2.522   1_554  S
Cl223     Mn1119   2.563   1_554  S
C224        C855   1.490       .  S
C225        C715   1.483       .  S
N226        N227   1.330       .  A
N226        N232   1.314       .  A
N226       Mn255   2.244       .  S
N227        C234   1.364       .  A
N228        N230   1.314       .  A
N228        N229   1.310       .  A
N228       Mn244   2.150       .  S
N229        C235   1.340       .  A
N230        N231   1.330       .  A
N230       Mn255   2.245       .  S
N231        C235   1.364       .  A
N232        N233   1.308       .  A
N232       Mn244   2.147       .  S
N233        C234   1.341       .  A
C234        C816   1.479       .  S
C235        C785   1.474       .  S
N236        N237   1.319       .  A
N236       N1151   1.308   1_554  A
N236       Mn266   2.171       .  S
N237        C245   1.354       .  A
N238        N239   1.318       .  A
N238       N1149   1.309       .  A
N238       Mn244   2.179       .  S
N239       C1155   1.353       .  A
N240        N241   1.319       .  A
N240       N1147   1.308   1_554  A
N240       Mn266   2.180       .  S
N241        C246   1.354       .  A
N242        N243   1.315       .  A
N242       N1145   1.308       .  A
N242       Mn244   2.163       .  S
N243       C1154   1.349       .  A
Mn244     Cl1177   2.529       .  S
C245       N1152   1.351   1_554  A
C245        C452   1.472       .  S
C246       N1148   1.351   1_554  A
C246        C463   1.475       .  S
N247        N248   1.324       .  A
N247       N1162   1.320       .  A
N247       Mn255   2.230       .  S
N248       C1165   1.357       .  A
N249        N250   1.324       .  A
N249       N1160   1.320   1_554  A
N249       Mn267   2.233       .  S
N250        C257   1.357       .  A
N251        N252   1.324       .  A
N251       N1158   1.320       .  A
N251       Mn255   2.228       .  S
N252       C1166   1.356       .  A
N253        N254   1.323       .  A
N253       N1156   1.320   1_554  A
N253       Mn267   2.228       .  S
N254        C256   1.356       .  A
Mn255     Cl1177   2.559       .  S
C256       N1157   1.356   1_554  A
C256        C522   1.501       .  S
C257       N1161   1.358   1_554  A
C257       C1344   1.507       .  S
N258        N259   1.309       .  A
N258        N264   1.314       .  A
N258       Mn266   2.145       .  S
N259        C269   1.340       .  A
N260        N261   1.331       .  A
N260        N262   1.314       .  A
N260       Mn267   2.253       .  S
N261        C270   1.367       .  A
N262        N263   1.309       .  A
N262       Mn266   2.147       .  S
N263        C270   1.341       .  A
N264        N265   1.329       .  A
N264       Mn267   2.245       .  S
N265        C269   1.364       .  A
Mn266      Cl268   2.535       .  S
Mn267      Cl268   2.552       .  S
Cl268     Mn1153   2.510   1_554  S
Cl268     Mn1164   2.566   1_554  S
C269        C802   1.475       .  S
C270        C774   1.485       .  S
N271        N272   1.318       .  A
N271       N1186   1.307   1_554  A
N271       Mn300   2.169       .  S
N272        C279   1.352       .  A
N273        N274   1.314       .  A
N273       N1184   1.307       .  A
N273       Mn289   2.155       .  S
N274       C1189   1.349       .  A
N275        N276   1.315       .  A
N275       N1182   1.307   1_554  A
N275       Mn300   2.163       .  S
N276        C280   1.352       .  A
N277        N278   1.314       .  A
N277       N1180   1.307       .  A
N277       Mn289   2.168       .  S
N278       C1188   1.351       .  A
C279       N1187   1.353   1_554  A
C279        C466   1.474       .  S
C280       N1183   1.351   1_554  A
C280        C424   1.467       .  S
N281        N287   1.314       .  A
N281        N282   1.329       .  A
N281       Mn311   2.243       .  S
N282        C290   1.363       .  A
N283        N284   1.306       .  A
N283        N285   1.313       .  A
N283       Mn289   2.130       .  S
N284        C291   1.338       .  A
N285        N286   1.335       .  A
N285       Mn311   2.272       .  S
N286        C291   1.371       .  A
N287        N288   1.309       .  A
N287       Mn289   2.147       .  S
N288        C290   1.341       .  A
Mn289     Cl1222   2.517       .  S
C290        C648   1.475       .  S
C291        C844   1.492       .  S
N292        N293   1.308       .  A
N292        N298   1.314       .  A
N292       Mn300   2.140       .  S
N293        C301   1.339       .  A
N294        N296   1.313       .  A
N294        N295   1.335       .  A
N294       Mn312   2.269       .  S
N295        C302   1.371       .  A
N296        N297   1.305       .  A
N296       Mn300   2.134       .  S
N297        C302   1.338       .  A
N298        N299   1.333       .  A
N298       Mn312   2.263       .  S
N299        C301   1.369       .  A
Mn300      Cl313   2.519       .  S
C301        C631   1.487       .  S
C302        C830   1.494       .  S
N303        N304   1.323       .  A
N303       N1218   1.321       .  A
N303       Mn311   2.223       .  S
N304        C314   1.355       .  A
N305        N306   1.326       .  A
N305       N1216   1.322   1_554  A
N305       Mn312   2.246       .  S
N306        C315   1.358       .  A
N307        N308   1.327       .  A
N307       N1214   1.322       .  A
N307       Mn311   2.250       .  S
N308       C1224   1.359       .  A
N309        N310   1.325       .  A
N309       N1212   1.321   1_554  A
N309       Mn312   2.243       .  S
N310       C1223   1.358       .  A
Mn311     Cl1222   2.562       .  S
Mn312      Cl313   2.564       .  S
Cl313     Mn1198   2.524   1_554  S
Cl313     Mn1220   2.559   1_554  S
C314       N1219   1.357       .  A
C314        C477   1.499       .  S
C315       N1217   1.359   1_554  A
C315        C536   1.510       .  S
N316        N317   1.331       .  A
N316        N322   1.312       .  A
N316       Mn345   2.247       .  S
N317        C324   1.367       .  A
N318        N320   1.314       .  A
N318        N319   1.309       .  A
N318       Mn334   2.144       .  S
N319        C325   1.340       .  A
N320        N321   1.332       .  A
N320       Mn345   2.264       .  S
N321        C325   1.368       .  A
N322        N323   1.307       .  A
N322       Mn334   2.137       .  S
N323        C324   1.338       .  A
C324        C760   1.480       .  S
C325        C676   1.487       .  S
N326        N327   1.315       .  A
N326       N1241   1.307   1_554  A
N326       Mn356   2.158       .  S
N327        C335   1.349       .  A
N328        N329   1.315       .  A
N328       N1239   1.308       .  A
N328       Mn334   2.166       .  S
N329       C1245   1.351       .  A
N330        N331   1.317       .  A
N330       N1237   1.308   1_554  A
N330       Mn356   2.163       .  S
N331        C336   1.350       .  A
N332        N333   1.318       .  A
N332       N1235   1.307       .  A
N332       Mn334   2.169       .  S
N333       C1244   1.354       .  A
Mn334     Cl1267   2.525       .  S
C335       N1242   1.353   1_554  A
C335        C421   1.468       .  S
C336       N1238   1.355   1_554  A
C336        C449   1.473       .  S
N337        N338   1.323       .  A
N337       N1252   1.320       .  A
N337       Mn345   2.225       .  S
N338       C1255   1.355       .  A
N339        N340   1.327       .  A
N339       N1250   1.321   1_554  A
N339       Mn357   2.240       .  S
N340       C1256   1.359       .  A
N341        N342   1.325       .  A
N341       N1248   1.322       .  A
N341       Mn345   2.242       .  S
N342        C347   1.358       .  A
N343        N344   1.326       .  A
N343       N1246   1.321   1_554  A
N343       Mn357   2.244       .  S
N344        C346   1.359       .  A
Mn345     Cl1267   2.558       .  S
C346       N1247   1.360   1_554  A
C346        C407   1.514       .  S
C347       N1249   1.356       .  A
C347       C1400   1.503       .  S
N348        N349   1.307       .  A
N348        N354   1.314       .  A
N348       Mn356   2.133       .  S
N349        C359   1.339       .  A
N350        N351   1.331       .  A
N350        N352   1.313       .  A
N350       Mn357   2.254       .  S
N351        C360   1.367       .  A
N352        N353   1.306       .  A
N352       Mn356   2.132       .  S
N353        C360   1.338       .  A
N354        N355   1.332       .  A
N354       Mn357   2.259       .  S
N355        C359   1.368       .  A
Mn356      Cl358   2.523       .  S
Mn357      Cl358   2.565       .  S
Cl358     Mn1243   2.531   1_554  S
Cl358     Mn1254   2.557   1_554  S
C359        C743   1.484       .  S
C360        C662   1.483       .  S
N361        N362   1.315       .  A
N361       N1276   1.308   1_554  A
N361       Mn390   2.164       .  S
N362        C369   1.350   1_554  A
N363        N364   1.318       .  A
N363       N1274   1.308       .  A
N363       Mn379   2.175       .  S
N364       C1279   1.353       .  A
N365        N366   1.317       .  A
N365       N1272   1.307   1_554  A
N365       Mn390   2.166       .  S
N366        C370   1.352       .  A
N367        N368   1.316       .  A
N367       N1270   1.308       .  A
N367       Mn379   2.173       .  S
N368       C1278   1.353       .  A
C369       N1277   1.354       .  A
C369        C508   1.470       .  S
C370       N1273   1.351   1_554  A
C370        C564   1.470       .  S
N371        N377   1.315       .  A
N371        N372   1.330       .  A
N371       Mn401   2.246       .  S
N372        C380   1.365       .  A
N373        N374   1.309       .  A
N373        N375   1.316       .  A
N373       Mn379   2.150       .  S
N374        C381   1.340       .  A
N375        N376   1.328       .  A
N375       Mn401   2.234       .  S
N376        C381   1.361       .  A
N377        N378   1.308       .  A
N377       Mn379   2.147       .  S
N378        C380   1.341       .  A
Mn379     Cl1312   2.516       .  S
C380        C592   1.485       .  S
C381        C897   1.469       .  S
N382        N383   1.309       .  A
N382        N388   1.314       .  A
N382       Mn390   2.148       .  S
N383        C391   1.342       .  A
N384        N386   1.314       .  A
N384        N385   1.328       .  A
N384       Mn402   2.242       .  S
N385        C392   1.362       .  A
N386        N387   1.311       .  A
N386       Mn390   2.145       .  S
N387        C392   1.340       .  A
N388        N389   1.329       .  A
N388       Mn402   2.245       .  S
N389        C391   1.366       .  A
Mn390      Cl403   2.524       .  S
C391        C575   1.486       .  S
C392        C886   1.466       .  S
N393        N394   1.325       .  A
N393       N1308   1.320       .  A
N393       Mn401   2.235       .  S
N394        C404   1.358       .  A
N395        N396   1.325       .  A
N395       N1306   1.320   1_554  A
N395       Mn402   2.232       .  S
N396        C405   1.357       .  A
N397        N398   1.325       .  A
N397       N1304   1.320       .  A
N397       Mn401   2.233       .  S
N398       C1314   1.358       .  A
N399        N400   1.323       .  A
N399       N1302   1.321   1_554  A
N399       Mn402   2.231       .  S
N400       C1313   1.356       .  A
Mn401     Cl1312   2.561       .  S
Mn402      Cl403   2.559       .  S
Cl403     Mn1288   2.526   1_554  S
Cl403     Mn1310   2.557   1_554  S
C404       N1309   1.356       .  A
C404        C438   1.503       .  S
C405       N1307   1.360   1_554  A
C405        C410   1.512       .  S
C406        C407   1.409       .  A
C406        C411   1.415       .  A
C406        H413   1.083       .  S
C407       C1317   1.417   1_554  A
C408        C409   1.411       .  A
C408       C1316   1.416       .  A
C408        N415   1.432       .  S
C409       C1319   1.407       .  A
C409        H414   1.083       .  S
C410        C411   1.417       .  A
C410       C1318   1.409   1_554  A
C411        N412   1.432       .  S
N412        H416   1.046       .  S
N412        H417   1.046       .  S
N415        H418   1.046       .  S
N415        H419   1.046       .  S
C420        C425   1.400       .  A
C420       C1330   1.402       .  A
C420        H427   1.083       .  S
C421        C422   1.410       .  A
C421       C1329   1.402   1_554  A
C422        C423   1.393       .  A
C422        N429   1.433       .  S
C423        C424   1.402       .  A
C423        H428   1.083       .  S
C424       C1334   1.411   1_554  A
C425       C1333   1.414       .  A
C425        N426   1.438       .  S
N426        H430   1.046       .  S
N426        H431   1.046       .  S
N429        H432   1.046       .  S
N429        H433   1.046       .  S
C434        C439   1.413   1_565  A
C434       C1344   1.407       .  A
C434        H441   1.083       .  S
C435       C1166   1.504       .  S
C435        C436   1.416       .  A
C435       C1343   1.407       .  A
C436        C437   1.412   1_565  A
C436        N443   1.432       .  S
C437        C438   1.407       .  A
C437        H442   1.083       .  S
C438       C1348   1.415       .  A
C439       C1347   1.419       .  A
C439        N440   1.438       .  S
N440        H444   1.046       .  S
N440        H445   1.046       .  S
N443        H446   1.046       .  S
N443        H447   1.046       .  S
C448        C449   1.401   1_556  A
C448        C453   1.395       .  A
C448       H1364   1.084       .  S
C449        C450   1.412       .  A
C450        C451   1.400       .  A
C450        N457   1.433       .  S
C451        C452   1.403       .  A
C451        H456   1.084       .  S
C452        C453   1.410   1_554  A
C453       N1363   1.433       .  S
N454       C1362   1.433       .  S
N454       H1367   1.046       .  S
N454       H1368   1.046       .  S
H455       C1357   1.083       .  S
N457        H460   1.046       .  S
N457        H461   1.046       .  S
H458       N1363   1.046       .  S
H459       N1363   1.046       .  S
C462        C463   1.404       .  A
C462        C467   1.403       .  A
C462        H469   1.083       .  S
C463       C1373   1.411   1_554  A
C464        C465   1.392       .  A
C464       C1372   1.409       .  A
C464        N471   1.430       .  S
C465       C1375   1.400       .  A
C465        H470   1.084       .  S
C466        C467   1.413       .  A
C466       C1374   1.402   1_554  A
C467        N468   1.438       .  S
N468        H472   1.046       .  S
N468        H473   1.046       .  S
N471        H474   1.046       .  S
N471        H475   1.045       .  S
C476        C481   1.411   1_565  A
C476       C1386   1.406       .  A
C476        H483   1.084       .  S
C477        C478   1.415       .  A
C477       C1385   1.405       .  A
C478        C479   1.411   1_565  A
C478        N485   1.432       .  S
C479        C480   1.408       .  A
C479        H484   1.083       .  S
C480       C1390   1.415       .  A
C481       C1389   1.416       .  A
C481        N482   1.432       .  S
N482        H486   1.046       .  S
N482        H487   1.046       .  S
N485        H488   1.046       .  S
N485        H489   1.046       .  S
C490        C491   1.410       .  A
C490        C495   1.417   1_455  A
C490        H497   1.083       .  S
C491       C1256   1.512       .  S
C491        C492   1.416   1_554  A
C492        C493   1.413   1_455  A
C492       N1408   1.432       .  S
C493        C494   1.408   1_556  A
C493        H498   1.083       .  S
C494        C495   1.417       .  A
C495        N496   1.432       .  S
N496        H501   1.046       .  S
N496       H1409   1.046       .  S
N499       C1401   1.432       .  S
N499       H1411   1.046       .  S
N499       H1412   1.045       .  S
H500       N1405   1.046       .  S
H502       N1408   1.046       .  S
H503       N1408   1.046       .  S
C504        C505   1.402   1_554  A
C504        C509   1.395       .  A
C504        H511   1.083       .  S
C505       C1415   1.409       .  A
C506        C507   1.397       .  A
C506       C1414   1.410       .  A
C506        N513   1.432       .  S
C507       C1417   1.403       .  A
C507        H512   1.084       .  S
C508        C509   1.410   1_556  A
C508       C1416   1.403       .  A
C509        N510   1.433       .  S
N510        H514   1.046       .  S
N510        H515   1.046       .  S
N513        H516   1.046       .  S
N513        H517   1.045       .  S
C518        C519   1.406       .  A
C518        C523   1.411   1_655  A
C518        H525   1.083       .  S
C519       C1076   1.498       .  S
C519       C1429   1.413   1_554  A
C520        C521   1.411   1_655  A
C520       C1428   1.415       .  A
C520        N527   1.432       .  S
C521       C1431   1.407       .  A
C521        H526   1.083       .  S
C522        C523   1.418       .  A
C522       C1430   1.408   1_554  A
C523        N524   1.438       .  S
N524        H528   1.046       .  S
N524        H529   1.045       .  S
N527        H530   1.046       .  S
N527        H531   1.045       .  S
C532        C533   1.409       .  A
C532        C537   1.415       .  A
C532        H539   1.083       .  S
C533        C534   1.416   1_554  A
C534        C535   1.414       .  A
C534       N1450   1.432       .  S
C535        C536   1.408   1_556  A
C535        H540   1.083       .  S
C536        C537   1.416       .  A
C537        N538   1.432       .  S
N538        H542   1.046       .  S
N538        H543   1.046       .  S
N541       C1443   1.432       .  S
N541       H1453   1.046       .  S
N541       H1454   1.046       .  S
H544       N1450   1.046       .  S
H545       N1450   1.046       .  S
C546        C551   1.398       .  A
C546       C1456   1.403       .  A
C546        H553   1.084       .  S
C547        C548   1.411       .  A
C547       C1455   1.403   1_554  A
C548        C549   1.396       .  A
C548        N555   1.433       .  S
C549        C550   1.401   1_554  A
C549        H554   1.084       .  S
C550       C1460   1.413       .  A
C551       C1459   1.413       .  A
C551        N552   1.438       .  S
N552        H556   1.046       .  S
N552        H557   1.046       .  S
N555        H558   1.046       .  S
N555        H559   1.046       .  S
C560        C561   1.402   1_556  A
C560        C565   1.394       .  A
C560        H567   1.084       .  S
C561        C562   1.410       .  A
C562        C563   1.398       .  A
C562        N569   1.433       .  S
C563        C564   1.404       .  A
C563        H568   1.084       .  S
C564        C565   1.410   1_554  A
C565        N566   1.433       .  S
N566        H570   1.046       .  S
N566        H571   1.046       .  S
N569        H572   1.046       .  S
N569        H573   1.046       .  S
C574        C575   1.411       .  A
C574        C579   1.401       .  A
C574        H581   1.083       .  S
C575        C576   1.407       .  A
C576        C577   1.409       .  A
C576        N583   1.437       .  S
C577        C578   1.412       .  A
C577        H582   1.083       .  S
C578        C579   1.406       .  A
C579        N580   1.438       .  S
N580        H584   1.046       .  S
N580        H585   1.046       .  S
N583        H586   1.046       .  S
N583        H587   1.046       .  S
C588        C589   1.412       .  A
C588        C593   1.407       .  A
C588        H595   1.083       .  S
C589        C590   1.411       .  A
C590        C591   1.393       .  A
C590        N597   1.433       .  S
C591        C592   1.411       .  A
C591        H596   1.083       .  S
C592        C593   1.405       .  A
C593        N594   1.431       .  S
N594        H598   1.046       .  S
N594        H599   1.046       .  S
N597        H600   1.045       .  S
N597        H601   1.045       .  S
C602        C603   1.410       .  A
C602        C607   1.394       .  A
C602        H609   1.084       .  S
C603        C604   1.409       .  A
C604        C605   1.408       .  A
C604        N611   1.437       .  S
C605        C606   1.410       .  A
C605        H610   1.083       .  S
C606        C607   1.403       .  A
C607        N608   1.433       .  S
N608        H612   1.046       .  S
N608        H613   1.046       .  S
N611        H614   1.045       .  S
N611        H615   1.046       .  S
C616        C617   1.398       .  A
C616        C621   1.400       .  A
C616        H623   1.084       .  S
C617        C618   1.425       .  A
C618        C619   1.399       .  A
C618        N625   1.439       .  S
C619        C620   1.393       .  A
C619        H624   1.084       .  S
C620        C621   1.416       .  A
C621        N622   1.433       .  S
N622        H626   1.046       .  S
N622        H627   1.046       .  S
N625        H628   1.046       .  S
N625        H629   1.046       .  S
C630        C631   1.401       .  A
C630        C635   1.410       .  A
C630        H637   1.084       .  S
C631        C632   1.421       .  A
C632        C633   1.400       .  A
C632        N639   1.434       .  S
C633        C634   1.394       .  A
C633        H638   1.084       .  S
C634        C635   1.417       .  A
C635        N636   1.432       .  S
N636        H640   1.046       .  S
N636        H641   1.046       .  S
N639        H642   1.046       .  S
N639        H643   1.046       .  S
C644        C645   1.396       .  A
C644        C649   1.396       .  A
C644        H651   1.084       .  S
C645        C646   1.419       .  A
C646        C647   1.411       .  A
C646        N653   1.438       .  S
C647        C648   1.399       .  A
C647        H652   1.084       .  S
C648        C649   1.414       .  A
C649        N650   1.434       .  S
N650        H654   1.046       .  S
N650        H655   1.046       .  S
N653        H656   1.046       .  S
N653        H657   1.046       .  S
C658        C659   1.411       .  A
C658        C663   1.408       .  A
C658        H665   1.083       .  S
C659        C660   1.401       .  A
C660        C661   1.397       .  A
C660        N667   1.433       .  S
C661        C662   1.413       .  A
C661        H666   1.083       .  S
C662        C663   1.406       .  A
C663        N664   1.436       .  S
N664        H668   1.046       .  S
N664        H669   1.046       .  S
N667        H670   1.046       .  S
N667        H671   1.046       .  S
C672        C673   1.395       .  A
C672        C677   1.400       .  A
C672        H679   1.084       .  S
C673        C674   1.420       .  A
C674        C675   1.412       .  A
C674        N681   1.438       .  S
C675        C676   1.400       .  A
C675        H680   1.083       .  S
C676        C677   1.419       .  A
C677        N678   1.434       .  S
N678        H682   1.046       .  S
N678        H683   1.046       .  S
N681        H684   1.046       .  S
N681        H685   1.046       .  S
C686        C687   1.409       .  A
C686        C691   1.400       .  A
C686        H693   1.084       .  S
C687        C688   1.406       .  A
C688        C689   1.394       .  A
C688        N695   1.432       .  S
C689        C690   1.410       .  A
C689        H694   1.084       .  S
C690        C691   1.410       .  A
C691        N692   1.432       .  S
N692        H696   1.045       .  S
N692        H697   1.045       .  S
N695        H698   1.045       .  S
N695        H699   1.046       .  S
C700        C701   1.413       .  A
C700        C705   1.400       .  A
C700        H707   1.083       .  S
C701        C702   1.407       .  A
C702        C703   1.408       .  A
C702        N709   1.437       .  S
C703        C704   1.411       .  A
C703        H708   1.083       .  S
C704        C705   1.405       .  A
C705        N706   1.438       .  S
N706        H710   1.046       .  S
N706        H711   1.045       .  S
N709        H712   1.045       .  S
N709        H713   1.046       .  S
C714        C715   1.413       .  A
C714        C719   1.396       .  A
C714        H721   1.083       .  S
C715        C716   1.409       .  A
C716        C717   1.401       .  A
C716        N723   1.432       .  S
C717        C718   1.412       .  A
C717        H722   1.083       .  S
C718        C719   1.403       .  A
C719        N720   1.438       .  S
N720        H724   1.046       .  S
N720        H725   1.045       .  S
N723        H726   1.046       .  S
N723        H727   1.045       .  S
C728        C729   1.410       .  A
C728        C733   1.403       .  A
C728        H735   1.084       .  S
C729        C730   1.405       .  A
C730        C731   1.403       .  A
C730        N737   1.437       .  S
C731        C732   1.411       .  A
C731        H736   1.083       .  S
C732        C733   1.413       .  A
C733        N734   1.432       .  S
N734        H738   1.045       .  S
N734        H739   1.045       .  S
N737        H740   1.046       .  S
N737        H741   1.046       .  S
C742        C743   1.412       .  A
C742        C747   1.395       .  A
C742        H749   1.084       .  S
C743        C744   1.409       .  A
C744        C745   1.404       .  A
C744        N751   1.432       .  S
C745        C746   1.412       .  A
C745        H750   1.084       .  S
C746        C747   1.406       .  A
C747        N748   1.433       .  S
N748        H752   1.045       .  S
N748        H753   1.046       .  S
N751        H754   1.045       .  S
N751        H755   1.045       .  S
C756        C757   1.393       .  A
C756        C761   1.398       .  A
C756        H763   1.084       .  S
C757        C758   1.417       .  A
C758        C759   1.407       .  A
C758        N765   1.433       .  S
C759        C760   1.399       .  A
C759        H764   1.084       .  S
C760        C761   1.419       .  A
C761        N762   1.434       .  S
N762        H766   1.046       .  S
N762        H767   1.046       .  S
N765        H768   1.046       .  S
N765        H769   1.046       .  S
C770        C771   1.412       .  A
C770        C775   1.412       .  A
C770        H777   1.083       .  S
C771        C772   1.401       .  A
C772        C773   1.399       .  A
C772        N779   1.433       .  S
C773        C774   1.411       .  A
C773        H778   1.084       .  S
C774        C775   1.408       .  A
C775        N776   1.437       .  S
N776        H780   1.046       .  S
N776        H781   1.046       .  S
N779        H782   1.046       .  S
N779        H783   1.046       .  S
C784        C785   1.399       .  A
C784        C789   1.404       .  A
C784        H791   1.084       .  S
C785        C786   1.420       .  A
C786        C787   1.399       .  A
C786        N793   1.434       .  S
C787        C788   1.396       .  A
C787        H792   1.084       .  S
C788        C789   1.412       .  A
C789        N790   1.433       .  S
N790        H794   1.046       .  S
N790        H795   1.046       .  S
N793        H796   1.046       .  S
N793        H797   1.043       .  S
C798        C799   1.395       .  A
C798        C803   1.400       .  A
C798        H805   1.084       .  S
C799        C800   1.415       .  A
C800        C801   1.404       .  A
C800        N807   1.433       .  S
C801        C802   1.398       .  A
C801        H806   1.084       .  S
C802        C803   1.416       .  A
C803        N804   1.433       .  S
N804        H808   1.046       .  S
N804        H809   1.046       .  S
N807        H810   1.046       .  S
N807        H811   1.046       .  S
C812        C813   1.393       .  A
C812        C817   1.397       .  A
C812        H819   1.084       .  S
C813        C814   1.419       .  A
C814        C815   1.411       .  A
C814        N821   1.438       .  S
C815        C816   1.399       .  A
C815        H820   1.083       .  S
C816        C817   1.413       .  A
C817        N818   1.430       .  S
N818        H822   1.046       .  S
N818        H823   1.043       .  S
N821        H824   1.046       .  S
N821        H825   1.046       .  S
C826        C827   1.417       .  A
C826        C831   1.416       .  A
C826        H833   1.083       .  S
C827        C828   1.410       .  A
C828        C829   1.392       .  A
C828        N835   1.433       .  S
C829        C830   1.413       .  A
C829        H834   1.083       .  S
C830        C831   1.407       .  A
C831        N832   1.436       .  S
N832        H836   1.046       .  S
N832        H837   1.046       .  S
N835        H838   1.045       .  S
N835        H839   1.045       .  S
C840        C841   1.415       .  A
C840        C845   1.410       .  A
C840        H847   1.083       .  S
C841        C842   1.403       .  A
C842        C843   1.400       .  A
C842        N849   1.433       .  S
C843        C844   1.415       .  A
C843        H848   1.083       .  S
C844        C845   1.404       .  A
C845        N846   1.431       .  S
N846        H850   1.046       .  S
N846        H851   1.046       .  S
N849        H852   1.046       .  S
N849        H853   1.046       .  S
C854        C855   1.399       .  A
C854        C859   1.406       .  A
C854        H861   1.083       .  S
C855        C856   1.421       .  A
C856        C857   1.406       .  A
C856        N863   1.433       .  S
C857        C858   1.398       .  A
C857        H862   1.084       .  S
C858        C859   1.417       .  A
C859        N860   1.432       .  S
N860        H864   1.046       .  S
N860        H865   1.046       .  S
N863        H866   1.046       .  S
N863        H867   1.046       .  S
C868        C869   1.411       .  A
C868        C873   1.401       .  A
C868        H875   1.084       .  S
C869        C870   1.407       .  A
C870        C871   1.406       .  A
C870        N877   1.437       .  S
C871        C872   1.408       .  A
C871        H876   1.084       .  S
C872        C873   1.403       .  A
C873        N874   1.438       .  S
N874        H878   1.045       .  S
N874        H879   1.046       .  S
N877        H880   1.046       .  S
N877        H881   1.046       .  S
C882        C883   1.398       .  A
C882        C887   1.397       .  A
C882        H889   1.084       .  S
C883        C884   1.412       .  A
C884        C885   1.399       .  A
C884        N891   1.433       .  S
C885        C886   1.401       .  A
C885        H890   1.084       .  S
C886        C887   1.415       .  A
C887        N888   1.433       .  S
N888        H892   1.044       .  S
N888        H893   1.046       .  S
N891        H894   1.046       .  S
N891        H895   1.045       .  S
C896        C897   1.396       .  A
C896        C901   1.404       .  A
C896        H903   1.084       .  S
C897        C898   1.416       .  A
C898        C899   1.400       .  A
C898        N905   1.439       .  S
C899        C900   1.397       .  A
C899        H904   1.084       .  S
C900        C901   1.417       .  A
C901        N902   1.433       .  S
N902        H906   1.046       .  S
N902        H907   1.046       .  S
N905        H908   1.046       .  S
N905        H909   1.046       .  S
N910        N911   1.324       .  A
N910        N916   1.313       .  A
N910       Mn939   2.235       .  S
N911        C918   1.362       .  A
N912        N914   1.316       .  A
N912        N913   1.315       .  A
N912       Mn928   2.174       .  S
N913        C919   1.346       .  A
N914        N915   1.326       .  A
N914       Mn939   2.231       .  S
N915        C919   1.360       .  A
N916        N917   1.317       .  A
N916       Mn928   2.161       .  S
N917        C918   1.346       .  A
C918       C1722   1.486       .  S
C919       C1708   1.476       .  S
N920        N926   1.316       .  A
N920        N921   1.327       .  A
N920       Mn950   2.239       .  S
N921        C929   1.361       .  A
N922        N923   1.315       .  A
N922        N924   1.317       .  A
N922       Mn928   2.166   1_545  S
N923        C930   1.344       .  A
N924        N925   1.326       .  A
N924       Mn950   2.246       .  S
N925        C930   1.363       .  A
N926        N927   1.313       .  A
N926       Mn928   2.158   1_545  S
N927        C929   1.341       .  A
Mn928      Cl952   2.517       .  S
C929       C1792   1.469       .  S
C930       C1809   1.481       .  S
N931        N932   1.325       .  A
N931        N937   1.314       .  A
N931       Mn939   2.234       .  S
N932        C940   1.361       .  A
N933        N935   1.315       .  A
N933        N934   1.313       .  A
N933       Mn951   2.163       .  S
N934        C941   1.345       .  A
N935        N936   1.325       .  A
N935       Mn939   2.231       .  S
N936        C941   1.361       .  A
N937        N938   1.315       .  A
N937       Mn951   2.162       .  S
N938        C940   1.345       .  A
Mn939      Cl952   2.570       .  S
C940       C1736   1.484       .  S
C941       C1750   1.479       .  S
N942        N943   1.326       .  A
N942        N948   1.315       .  A
N942       Mn950   2.243       .  S
N943        C953   1.362       .  A
N944        N945   1.315       .  A
N944        N946   1.316       .  A
N944       Mn951   2.160   1_545  S
N945        C954   1.343       .  A
N946        N947   1.328       .  A
N946       Mn950   2.258       .  S
N947        C954   1.366       .  A
N948        N949   1.316       .  A
N948       Mn951   2.165   1_545  S
N949        C953   1.345       .  A
Mn950      Cl952   2.574   1_545  S
Mn951      Cl952   2.521       .  S
C953       C1781   1.484       .  S
C954       C1767   1.486       .  S
N955        N956   1.325       .  A
N955        N961   1.315       .  A
N955       Mn984   2.244       .  S
N956        C963   1.363       .  A
N957        N959   1.315       .  A
N957        N958   1.313       .  A
N957       Mn973   2.154   1_655  S
N958        C964   1.342       .  A
N959        N960   1.325       .  A
N959       Mn984   2.240       .  S
N960        C964   1.362       .  A
N961        N962   1.316       .  A
N961       Mn973   2.161   1_655  S
N962        C963   1.345       .  A
C963       C1613   1.486       .  S
C964       C1596   1.475       .  S
N965        N971   1.315       .  A
N965        N966   1.325       .  A
N965       Mn995   2.239       .  S
N966        C974   1.362       .  A
N967        N968   1.315       .  A
N967        N969   1.314       .  A
N967       Mn973   2.162       .  S
N968        C975   1.346       .  A
N969        N970   1.323       .  A
N969       Mn995   2.228       .  S
N970        C975   1.360       .  A
N971        N972   1.316       .  A
N971       Mn973   2.166       .  S
N972        C974   1.346       .  A
Mn973      Cl997   2.524       .  S
C974       C1680   1.488       .  S
C975       C1697   1.483       .  S
N976        N977   1.327       .  A
N976        N982   1.315       .  A
N976       Mn984   2.248       .  S
N977        C985   1.364       .  A
N978        N980   1.315       .  A
N978        N979   1.313       .  A
N978       Mn996   2.160   1_655  S
N979        C986   1.343       .  A
N980        N981   1.328       .  A
N980       Mn984   2.248       .  S
N981        C986   1.364       .  A
N982        N983   1.315       .  A
N982       Mn996   2.164   1_655  S
N983        C985   1.345       .  A
Mn984      Cl997   2.568   1_655  S
C985       C1627   1.485       .  S
C986       C1638   1.484       .  S
N987        N988   1.326       .  A
N987        N993   1.315       .  A
N987       Mn995   2.238       .  S
N988        C998   1.362       .  A
N989        N990   1.316       .  A
N989        N991   1.314       .  A
N989       Mn996   2.164       .  S
N990        C999   1.346       .  A
N991        N992   1.324       .  A
N991       Mn995   2.237       .  S
N992        C999   1.362       .  A
N993        N994   1.316       .  A
N993       Mn996   2.172       .  S
N994        C998   1.346       .  A
Mn995      Cl997   2.567       .  S
Mn996      Cl997   2.522       .  S
C998       C1666   1.485       .  S
C999       C1655   1.488       .  S
N1000      N1001   1.325       .  A
N1000      N1006   1.315       .  A
N1000     Mn1029   2.233       .  S
N1001      C1008   1.361       .  A
N1002      N1004   1.314       .  A
N1002      N1003   1.317       .  A
N1002     Mn1018   2.167       .  S
N1003      C1009   1.347       .  A
N1004      N1005   1.323       .  A
N1004     Mn1029   2.230       .  S
N1005      C1009   1.360       .  A
N1006      N1007   1.316       .  A
N1006     Mn1018   2.178       .  S
N1007      C1008   1.348       .  A
C1008      C1498   1.486       .  S
C1009      C1487   1.484       .  S
N1010      N1016   1.316       .  A
N1010      N1011   1.325       .  A
N1010     Mn1040   2.235       .  S
N1011      C1019   1.361       .  A
N1012      N1013   1.314       .  A
N1012      N1014   1.315       .  A
N1012     Mn1018   2.163       .  S
N1013      C1020   1.345       .  A
N1014      N1015   1.326       .  A
N1014     Mn1040   2.238       .  S
N1015      C1020   1.362       .  A
N1016      N1017   1.316       .  A
N1016     Mn1018   2.176       .  S
N1017      C1019   1.347       .  A
Mn1018    Cl1042   2.524       .  S
C1019      C1568   1.484       .  S
C1020      C1582   1.485       .  S
N1021      N1022   1.323       .  A
N1021      N1027   1.315       .  A
N1021     Mn1029   2.232       .  S
N1022      C1030   1.361       .  A
N1023      N1025   1.314       .  A
N1023      N1024   1.315       .  A
N1023     Mn1041   2.162       .  S
N1024      C1031   1.344       .  A
N1025      N1026   1.324       .  A
N1025     Mn1029   2.227       .  S
N1026      C1031   1.360       .  A
N1027      N1028   1.314       .  A
N1027     Mn1041   2.161       .  S
N1028      C1030   1.345       .  A
Mn1029    Cl1042   2.566       .  S
C1030      C1515   1.482       .  S
C1031      C1529   1.474       .  S
N1032      N1033   1.323       .  A
N1032      N1038   1.315       .  A
N1032     Mn1040   2.231       .  S
N1033      C1043   1.361       .  A
N1034      N1035   1.314       .  A
N1034      N1036   1.314       .  A
N1034     Mn1041   2.163       .  S
N1035      C1044   1.344       .  A
N1036      N1037   1.325       .  A
N1036     Mn1040   2.233       .  S
N1037      C1044   1.362       .  A
N1038      N1039   1.316       .  A
N1038     Mn1041   2.169       .  S
N1039      C1043   1.346       .  A
Mn1040    Cl1042   2.570       .  S
Mn1041    Cl1042   2.520       .  S
C1043      C1554   1.482       .  S
C1044      C1543   1.483       .  S
N1045      N1046   1.332       .  A
N1045      N1051   1.313       .  A
N1045     Mn1074   2.255       .  S
N1046      C1053   1.368       .  A
N1047      N1049   1.315       .  A
N1047      N1048   1.310       .  A
N1047     Mn1063   2.153       .  S
N1048      C1054   1.342       .  A
N1049      N1050   1.329       .  A
N1049     Mn1074   2.243       .  S
N1050      C1054   1.364       .  A
N1051      N1052   1.306       .  A
N1051     Mn1063   2.140       .  S
N1052      C1053   1.340       .  A
C1053      C1610   1.490       .  S
C1054      C1526   1.480       .  S
N1055      N1056   1.316       .  A
N1055     Mn1085   2.168       .  S
N1056      C1064   1.351       .  A
N1057      N1058   1.319       .  A
N1057     Mn1063   2.181       .  S
N1059      N1060   1.317       .  A
N1059     Mn1085   2.168       .  S
N1060      C1065   1.352       .  A
N1061      N1062   1.315       .  A
N1061     Mn1063   2.171       .  S
C1064      C1470   1.473       .  S
C1065      C1456   1.470       .  S
N1066      N1067   1.326       .  A
N1066     Mn1074   2.246       .  S
N1068      N1069   1.325       .  A
N1068     Mn1086   2.234       .  S
N1070      N1071   1.324       .  A
N1070     Mn1074   2.229       .  S
N1071      C1076   1.357   1_556  A
N1072      N1073   1.326       .  A
N1072     Mn1086   2.241       .  S
N1073      C1075   1.359       .  A
C1075      C1442   1.511       .  S
N1077      N1078   1.306       .  A
N1077      N1083   1.313       .  A
N1077     Mn1085   2.131       .  S
N1078      C1088   1.339       .  A
N1079      N1080   1.331       .  A
N1079      N1081   1.314       .  A
N1079     Mn1086   2.253       .  S
N1080      C1089   1.368       .  A
N1081      N1082   1.305       .  A
N1081     Mn1085   2.132       .  S
N1082      C1089   1.338       .  A
N1083      N1084   1.330       .  A
N1083     Mn1086   2.246       .  S
N1084      C1088   1.365       .  A
Mn1085    Cl1087   2.523       .  S
Mn1086    Cl1087   2.558       .  S
C1088      C1599   1.477       .  S
C1089      C1512   1.485       .  S
N1090      N1091   1.332       .  A
N1090      N1096   1.314       .  A
N1090     Mn1119   2.260       .  S
N1091      C1098   1.368       .  A
N1092      N1094   1.313       .  A
N1092      N1093   1.307       .  A
N1092     Mn1108   2.136       .  S
N1093      C1099   1.339       .  A
N1094      N1095   1.333       .  A
N1094     Mn1119   2.263       .  S
N1095      C1099   1.369       .  A
N1096      N1097   1.307       .  A
N1096     Mn1108   2.140       .  S
N1097      C1098   1.339       .  A
C1098      C1778   1.487       .  S
C1099      C1641   1.491       .  S
N1100      N1101   1.317       .  A
N1100     Mn1130   2.173       .  S
N1101      C1109   1.353       .  A
N1102      N1103   1.317       .  A
N1102     Mn1108   2.170       .  S
N1104      N1105   1.318       .  A
N1104     Mn1130   2.174       .  S
N1105      C1110   1.353       .  A
N1106      N1107   1.317       .  A
N1106     Mn1108   2.166       .  S
C1109      C1459   1.471       .  S
C1110      C1414   1.474       .  S
N1111      N1112   1.325       .  A
N1111     Mn1119   2.245       .  S
N1113      N1114   1.322       .  A
N1113     Mn1131   2.227       .  S
N1115      N1116   1.327       .  A
N1115     Mn1119   2.249       .  S
N1116      C1121   1.360   1_556  A
N1117      N1118   1.325       .  A
N1117     Mn1131   2.235       .  S
N1118      C1120   1.357       .  A
C1120      C1403   1.503       .  S
C1121      C1389   1.508       .  S
N1122      N1123   1.308       .  A
N1122      N1128   1.314       .  A
N1122     Mn1130   2.146       .  S
N1123      C1133   1.340       .  A
N1124      N1125   1.331       .  A
N1124      N1126   1.313       .  A
N1124     Mn1131   2.249       .  S
N1125      C1134   1.366       .  A
N1126      N1127   1.309       .  A
N1126     Mn1130   2.149       .  S
N1127      C1134   1.342       .  A
N1128      N1129   1.333       .  A
N1128     Mn1131   2.261       .  S
N1129      C1133   1.369       .  A
Mn1130    Cl1132   2.527       .  S
Mn1131    Cl1132   2.558       .  S
C1133      C1764   1.489       .  S
C1134      C1624   1.489       .  S
N1135      N1136   1.330       .  A
N1135      N1141   1.314       .  A
N1135     Mn1164   2.242       .  S
N1136      C1143   1.366       .  A
N1137      N1139   1.313       .  A
N1137      N1138   1.308       .  A
N1137     Mn1153   2.148       .  S
N1138      C1144   1.342       .  A
N1139      N1140   1.330       .  A
N1139     Mn1164   2.243       .  S
N1140      C1144   1.365       .  A
N1141      N1142   1.309       .  A
N1141     Mn1153   2.155       .  S
N1142      C1143   1.341       .  A
C1143      C1725   1.489       .  S
C1144      C1694   1.487       .  S
N1145      N1146   1.319       .  A
N1145     Mn1175   2.182       .  S
N1146      C1154   1.355       .  A
N1147      N1148   1.316       .  A
N1147     Mn1153   2.170       .  S
N1149      N1150   1.317       .  A
N1149     Mn1175   2.178       .  S
N1150      C1155   1.352       .  A
N1151      N1152   1.314       .  A
N1151     Mn1153   2.171       .  S
C1154      C1361   1.472       .  S
C1155      C1372   1.475       .  S
N1156      N1157   1.324       .  A
N1156     Mn1164   2.227       .  S
N1158      N1159   1.325       .  A
N1158     Mn1176   2.241       .  S
N1159      C1166   1.359       .  A
N1160      N1161   1.325       .  A
N1160     Mn1164   2.237       .  S
N1162      N1163   1.325       .  A
N1162     Mn1176   2.236       .  S
N1163      C1165   1.357       .  A
C1165      C1431   1.504       .  S
N1167      N1168   1.311       .  A
N1167      N1173   1.315       .  A
N1167     Mn1175   2.156       .  S
N1168      C1178   1.342       .  A
N1169      N1170   1.330       .  A
N1169      N1171   1.315       .  A
N1169     Mn1176   2.244       .  S
N1170      C1179   1.365       .  A
N1171      N1172   1.310       .  A
N1171     Mn1175   2.157       .  S
N1172      C1179   1.343       .  A
N1173      N1174   1.329       .  A
N1173     Mn1176   2.248       .  S
N1174      C1178   1.365       .  A
Mn1175    Cl1177   2.524       .  S
Mn1176    Cl1177   2.561       .  S
C1178      C1711   1.482       .  S
C1179      C1683   1.486       .  S
N1180      N1181   1.319       .  A
N1180     Mn1209   2.171       .  S
N1181      C1188   1.353       .  A
N1182      N1183   1.315       .  A
N1182     Mn1198   2.161       .  S
N1184      N1185   1.317       .  A
N1184     Mn1209   2.175       .  S
N1185      C1189   1.354       .  A
N1186      N1187   1.317       .  A
N1186     Mn1198   2.175       .  S
C1188      C1375   1.471       .  S
C1189      C1333   1.470       .  S
N1190      N1196   1.315       .  A
N1190      N1191   1.330       .  A
N1190     Mn1220   2.250       .  S
N1191      C1199   1.364       .  A
N1192      N1193   1.307       .  A
N1192      N1194   1.314       .  A
N1192     Mn1198   2.135       .  S
N1193      C1200   1.339       .  A
N1194      N1195   1.330       .  A
N1194     Mn1220   2.256       .  S
N1195      C1200   1.367       .  A
N1196      N1197   1.310       .  A
N1196     Mn1198   2.152       .  S
N1197      C1199   1.341       .  A
C1199      C1557   1.481       .  S
C1200      C1753   1.485       .  S
N1201      N1202   1.308       .  A
N1201      N1207   1.315       .  A
N1201     Mn1209   2.144       .  S
N1202      C1210   1.339       .  A
N1203      N1205   1.314       .  A
N1203      N1204   1.331       .  A
N1203     Mn1221   2.254       .  S
N1204      C1211   1.367       .  A
N1205      N1206   1.309       .  A
N1205     Mn1209   2.148       .  S
N1206      C1211   1.341       .  A
N1207      N1208   1.330       .  A
N1207     Mn1221   2.251       .  S
N1208      C1210   1.365       .  A
Mn1209    Cl1222   2.524       .  S
C1210      C1540   1.479       .  S
C1211      C1739   1.489       .  S
N1212      N1213   1.325       .  A
N1212     Mn1220   2.235       .  S
N1213      C1223   1.357   1_556  A
N1214      N1215   1.326       .  A
N1214     Mn1221   2.244       .  S
N1215      C1224   1.358       .  A
N1216      N1217   1.327       .  A
N1216     Mn1220   2.245       .  S
N1218      N1219   1.323       .  A
N1218     Mn1221   2.235       .  S
Mn1221    Cl1222   2.559       .  S
C1223      C1386   1.505       .  S
C1224      C1445   1.512       .  S
N1225      N1226   1.331       .  A
N1225      N1231   1.315       .  A
N1225     Mn1254   2.265       .  S
N1226      C1233   1.368       .  A
N1227      N1229   1.315       .  A
N1227      N1228   1.311       .  A
N1227     Mn1243   2.156       .  S
N1228      C1234   1.342       .  A
N1229      N1230   1.330       .  A
N1229     Mn1254   2.255       .  S
N1230      C1234   1.367       .  A
N1231      N1232   1.311       .  A
N1231     Mn1243   2.149       .  S
N1232      C1233   1.341       .  A
C1233      C1669   1.490       .  S
C1234      C1585   1.490       .  S
N1235      N1236   1.314       .  A
N1235     Mn1265   2.161       .  S
N1236      C1244   1.349       .  A
N1237      N1238   1.317       .  A
N1237     Mn1243   2.183       .  S
N1239      N1240   1.318       .  A
N1239     Mn1265   2.175       .  S
N1240      C1245   1.353       .  A
N1241      N1242   1.316       .  A
N1241     Mn1243   2.173       .  S
C1244      C1330   1.469       .  S
C1245      C1358   1.470       .  S
N1246      N1247   1.328       .  A
N1246     Mn1254   2.253       .  S
N1248      N1249   1.324       .  A
N1248     Mn1266   2.231       .  S
N1250      N1251   1.325       .  A
N1250     Mn1254   2.247       .  S
N1251      C1256   1.359   1_556  A
N1252      N1253   1.325       .  A
N1252     Mn1266   2.240       .  S
N1253      C1255   1.358       .  A
C1255      C1316   1.502       .  S
N1257      N1258   1.310       .  A
N1257      N1263   1.314       .  A
N1257     Mn1265   2.147       .  S
N1258      C1268   1.341       .  A
N1259      N1260   1.330       .  A
N1259      N1261   1.315       .  A
N1259     Mn1266   2.251       .  S
N1260      C1269   1.367       .  A
N1261      N1262   1.310       .  A
N1261     Mn1265   2.152       .  S
N1262      C1269   1.342       .  A
N1263      N1264   1.330       .  A
N1263     Mn1266   2.248       .  S
N1264      C1268   1.364       .  A
Mn1265    Cl1267   2.520       .  S
Mn1266    Cl1267   2.560       .  S
C1268      C1652   1.482       .  S
C1269      C1571   1.489       .  S
N1270      N1271   1.318       .  A
N1270     Mn1299   2.173       .  S
N1271      C1278   1.353       .  A
N1272      N1273   1.315       .  A
N1272     Mn1288   2.167       .  S
N1274      N1275   1.316       .  A
N1274     Mn1299   2.169       .  S
N1275      C1279   1.352       .  A
N1276      N1277   1.317       .  A
N1276     Mn1288   2.178       .  S
C1278      C1417   1.474       .  S
C1279      C1473   1.471       .  S
N1280      N1286   1.315       .  A
N1280      N1281   1.329       .  A
N1280     Mn1310   2.253       .  S
N1281      C1289   1.365       .  A
N1282      N1283   1.309       .  A
N1282      N1284   1.315       .  A
N1282     Mn1288   2.143       .  S
N1283      C1290   1.339       .  A
N1284      N1285   1.331       .  A
N1284     Mn1310   2.257       .  S
N1285      C1290   1.365       .  A
N1286      N1287   1.312       .  A
N1286     Mn1288   2.159       .  S
N1287      C1289   1.344       .  A
C1289      C1501   1.489       .  S
C1290      C1806   1.478       .  S
N1291      N1292   1.306       .  A
N1291      N1297   1.313       .  A
N1291     Mn1299   2.142       .  S
N1292      C1300   1.340       .  A
N1293      N1295   1.314       .  A
N1293      N1294   1.330       .  A
N1293     Mn1311   2.247       .  S
N1294      C1301   1.364       .  A
N1295      N1296   1.309       .  A
N1295     Mn1299   2.143       .  S
N1296      C1301   1.339       .  A
N1297      N1298   1.331       .  A
N1297     Mn1311   2.247       .  S
N1298      C1300   1.367       .  A
Mn1299    Cl1312   2.526       .  S
C1300      C1484   1.487       .  S
C1301      C1795   1.471       .  S
N1302      N1303   1.327       .  A
N1302     Mn1310   2.245       .  S
N1303      C1313   1.360   1_556  A
N1304      N1305   1.323       .  A
N1304     Mn1311   2.229       .  S
N1305      C1314   1.356       .  A
N1306      N1307   1.327       .  A
N1306     Mn1310   2.247       .  S
N1308      N1309   1.323       .  A
N1308     Mn1311   2.230       .  S
Mn1311    Cl1312   2.558       .  S
C1313      C1347   1.508       .  S
C1314      C1319   1.502       .  S
C1315      C1316   1.406       .  A
C1315      C1320   1.410       .  A
C1315      H1322   1.083       .  S
C1317      C1318   1.416       .  A
C1317      N1324   1.431       .  S
C1318      H1323   1.083       .  S
C1319      C1320   1.415       .  A
C1320      N1321   1.432       .  S
N1321      H1325   1.046       .  S
N1321      H1326   1.046       .  S
N1324      H1327   1.046       .  S
N1324      H1328   1.046       .  S
C1329      C1334   1.398       .  A
C1329      H1336   1.083       .  S
C1330      C1331   1.410       .  A
C1331      C1332   1.394       .  A
C1331      N1338   1.433       .  S
C1332      C1333   1.401       .  A
C1332      H1337   1.084       .  S
C1334      N1335   1.438       .  S
N1335      H1339   1.046       .  S
N1335      H1340   1.046       .  S
N1338      H1341   1.046       .  S
N1338      H1342   1.046       .  S
C1343      C1348   1.411   1_565  A
C1343      H1350   1.083       .  S
C1344      C1345   1.418   1_554  A
C1345      C1346   1.416   1_565  A
C1345      N1352   1.437       .  S
C1346      C1347   1.408   1_556  A
C1346      H1351   1.083       .  S
C1348      N1349   1.432       .  S
N1349      H1353   1.046       .  S
N1349      H1354   1.046       .  S
N1352      H1355   1.046       .  S
N1352      H1356   1.045       .  S
C1357      C1358   1.402       .  A
C1357      C1362   1.394       .  A
C1358      C1359   1.408       .  A
C1359      C1360   1.399       .  A
C1359      N1366   1.432       .  S
C1360      C1361   1.403       .  A
C1360      H1365   1.084       .  S
C1361      C1362   1.412       .  A
N1366      H1369   1.046       .  S
N1366      H1370   1.046       .  S
C1371      C1372   1.406       .  A
C1371      C1376   1.404       .  A
C1371      H1378   1.083       .  S
C1373      C1374   1.395       .  A
C1373      N1380   1.433       .  S
C1374      H1379   1.084       .  S
C1375      C1376   1.410       .  A
C1376      N1377   1.438       .  S
N1377      H1381   1.046       .  S
N1377      H1382   1.046       .  S
N1380      H1383   1.046       .  S
N1380      H1384   1.046       .  S
C1385      C1390   1.407   1_565  A
C1385      H1392   1.083       .  S
C1386      C1387   1.416   1_554  A
C1387      C1388   1.415   1_565  A
C1387      N1394   1.432       .  S
C1388      C1389   1.409   1_556  A
C1388      H1393   1.083       .  S
C1390      N1391   1.432       .  S
N1391      H1395   1.046       .  S
N1391      H1396   1.046       .  S
N1394      H1397   1.046       .  S
N1394      H1398   1.046       .  S
C1399      C1400   1.408       .  A
C1399      C1404   1.411   1_455  A
C1399      H1406   1.083       .  S
C1400      C1401   1.414       .  A
C1401      C1402   1.412   1_455  A
C1402      C1403   1.408       .  A
C1402      H1407   1.083       .  S
C1403      C1404   1.415       .  A
C1404      N1405   1.432       .  S
N1405      H1410   1.046       .  S
C1413      C1414   1.403       .  A
C1413      C1418   1.399       .  A
C1413      H1420   1.083       .  S
C1415      C1416   1.397       .  A
C1415      N1422   1.432       .  S
C1416      H1421   1.084       .  S
C1417      C1418   1.410       .  A
C1418      N1419   1.432       .  S
N1419      H1423   1.046       .  S
N1419      H1424   1.046       .  S
N1422      H1425   1.046       .  S
N1422      H1426   1.045       .  S
C1427      C1428   1.408       .  A
C1427      C1432   1.413   1_655  A
C1427      H1434   1.083       .  S
C1429      C1430   1.409   1_655  A
C1429      N1436   1.432       .  S
C1430      H1435   1.083       .  S
C1431      C1432   1.415       .  A
C1432      N1433   1.432       .  S
N1433      H1437   1.046       .  S
N1433      H1438   1.046       .  S
N1436      H1439   1.046       .  S
N1436      H1440   1.045       .  S
C1441      C1442   1.409       .  A
C1441      C1446   1.415       .  A
C1441      H1448   1.083       .  S
C1442      C1443   1.417       .  A
C1443      C1444   1.415       .  A
C1444      C1445   1.409       .  A
C1444      H1449   1.083       .  S
C1445      C1446   1.417       .  A
C1446      N1447   1.432       .  S
N1447      H1451   1.046       .  S
N1447      H1452   1.046       .  S
C1455      C1460   1.402       .  A
C1455      H1462   1.084       .  S
C1456      C1457   1.409       .  A
C1457      C1458   1.396       .  A
C1457      N1464   1.433       .  S
C1458      C1459   1.403       .  A
C1458      H1463   1.084       .  S
C1460      N1461   1.437       .  S
N1461      H1465   1.045       .  S
N1461      H1466   1.046       .  S
N1464      H1467   1.046       .  S
N1464      H1468   1.046       .  S
C1469      C1470   1.404       .  A
C1469      C1474   1.399       .  A
C1469      H1476   1.083       .  S
C1470      C1471   1.411       .  A
C1471      C1472   1.396       .  A
C1471      N1478   1.433       .  S
C1472      C1473   1.402       .  A
C1472      H1477   1.084       .  S
C1473      C1474   1.408       .  A
C1474      N1475   1.433       .  S
N1475      H1479   1.046       .  S
N1475      H1480   1.046       .  S
N1478      H1481   1.046       .  S
N1478      H1482   1.046       .  S
C1483      C1484   1.411       .  A
C1483      C1488   1.394       .  A
C1483      H1490   1.083       .  S
C1484      C1485   1.408       .  A
C1485      C1486   1.413       .  A
C1485      N1492   1.437       .  S
C1486      C1487   1.413       .  A
C1486      H1491   1.083       .  S
C1487      C1488   1.403       .  A
C1488      N1489   1.433       .  S
N1489      H1493   1.046       .  S
N1489      H1494   1.046       .  S
N1492      H1495   1.046       .  S
N1492      H1496   1.046       .  S
C1497      C1498   1.410       .  A
C1497      C1502   1.410       .  A
C1497      H1504   1.083       .  S
C1498      C1499   1.411       .  A
C1499      C1500   1.399       .  A
C1499      N1506   1.433       .  S
C1500      C1501   1.411       .  A
C1500      H1505   1.084       .  S
C1501      C1502   1.409       .  A
C1502      N1503   1.437       .  S
N1503      H1507   1.046       .  S
N1503      H1508   1.046       .  S
N1506      H1509   1.046       .  S
N1506      H1510   1.044       .  S
C1511      C1512   1.413       .  A
C1511      C1516   1.398       .  A
C1511      H1518   1.083       .  S
C1512      C1513   1.407       .  A
C1513      C1514   1.409       .  A
C1513      N1520   1.437       .  S
C1514      C1515   1.413       .  A
C1514      H1519   1.083       .  S
C1515      C1516   1.405       .  A
C1516      N1517   1.439       .  S
N1517      H1521   1.046       .  S
N1517      H1522   1.046       .  S
N1520      H1523   1.045       .  S
N1520      H1524   1.046       .  S
C1525      C1526   1.400       .  A
C1525      C1530   1.404       .  A
C1525      H1532   1.084       .  S
C1526      C1527   1.420       .  A
C1527      C1528   1.402       .  A
C1527      N1534   1.439       .  S
C1528      C1529   1.396       .  A
C1528      H1533   1.084       .  S
C1529      C1530   1.413       .  A
C1530      N1531   1.433       .  S
N1531      H1535   1.046       .  S
N1531      H1536   1.046       .  S
N1534      H1537   1.046       .  S
N1534      H1538   1.046       .  S
C1539      C1540   1.397       .  A
C1539      C1544   1.406       .  A
C1539      H1546   1.084       .  S
C1540      C1541   1.421       .  A
C1541      C1542   1.401       .  A
C1541      N1548   1.439       .  S
C1542      C1543   1.397       .  A
C1542      H1547   1.084       .  S
C1543      C1544   1.418       .  A
C1544      N1545   1.432       .  S
N1545      H1549   1.046       .  S
N1545      H1550   1.046       .  S
N1548      H1551   1.046       .  S
N1548      H1552   1.046       .  S
C1553      C1554   1.397       .  A
C1553      C1558   1.400       .  A
C1553      H1560   1.084       .  S
C1554      C1555   1.420       .  A
C1555      C1556   1.411       .  A
C1555      N1562   1.438       .  S
C1556      C1557   1.399       .  A
C1556      H1561   1.084       .  S
C1557      C1558   1.418       .  A
C1558      N1559   1.439       .  S
N1559      H1563   1.046       .  S
N1559      H1564   1.046       .  S
N1562      H1565   1.046       .  S
N1562      H1566   1.046       .  S
C1567      C1568   1.411       .  A
C1567      C1572   1.410       .  A
C1567      H1574   1.083       .  S
C1568      C1569   1.404       .  A
C1569      C1570   1.400       .  A
C1569      N1576   1.433       .  S
C1570      C1571   1.412       .  A
C1570      H1575   1.084       .  S
C1571      C1572   1.409       .  A
C1572      N1573   1.437       .  S
N1573      H1577   1.046       .  S
N1573      H1578   1.045       .  S
N1576      H1579   1.046       .  S
N1576      H1580   1.046       .  S
C1581      C1582   1.397       .  A
C1581      C1586   1.404       .  A
C1581      H1588   1.084       .  S
C1582      C1583   1.420       .  A
C1583      C1584   1.409       .  A
C1583      N1590   1.438       .  S
C1584      C1585   1.400       .  A
C1584      H1589   1.083       .  S
C1585      C1586   1.423       .  A
C1586      N1587   1.439       .  S
N1587      H1591   1.046       .  S
N1587      H1592   1.046       .  S
N1590      H1593   1.046       .  S
N1590      H1594   1.046       .  S
C1595      C1596   1.411       .  A
C1595      C1600   1.401       .  A
C1595      H1602   1.084       .  S
C1596      C1597   1.407       .  A
C1597      C1598   1.393       .  A
C1597      N1604   1.432       .  S
C1598      C1599   1.411       .  A
C1598      H1603   1.084       .  S
C1599      C1600   1.408       .  A
C1600      N1601   1.432       .  S
N1601      H1605   1.045       .  S
N1601      H1606   1.045       .  S
N1604      H1607   1.044       .  S
N1604      H1608   1.045       .  S
C1609      C1610   1.412       .  A
C1609      C1614   1.395       .  A
C1609      H1616   1.083       .  S
C1610      C1611   1.409       .  A
C1611      C1612   1.414       .  A
C1611      N1618   1.437       .  S
C1612      C1613   1.414       .  A
C1612      H1617   1.083       .  S
C1613      C1614   1.402       .  A
C1614      N1615   1.433       .  S
N1615      H1619   1.046       .  S
N1615      H1620   1.046       .  S
N1618      H1621   1.045       .  S
N1618      H1622   1.046       .  S
C1623      C1624   1.412       .  A
C1623      C1628   1.403       .  A
C1623      H1630   1.083       .  S
C1624      C1625   1.411       .  A
C1625      C1626   1.404       .  A
C1625      N1632   1.432       .  S
C1626      C1627   1.412       .  A
C1626      H1631   1.084       .  S
C1627      C1628   1.405       .  A
C1628      N1629   1.438       .  S
N1629      H1633   1.046       .  S
N1629      H1634   1.046       .  S
N1632      H1635   1.045       .  S
N1632      H1636   1.045       .  S
C1637      C1638   1.412       .  A
C1637      C1642   1.403       .  A
C1637      H1644   1.084       .  S
C1638      C1639   1.404       .  A
C1639      C1640   1.404       .  A
C1639      N1646   1.438       .  S
C1640      C1641   1.415       .  A
C1640      H1645   1.082       .  S
C1641      C1642   1.410       .  A
C1642      N1643   1.431       .  S
N1643      H1647   1.045       .  S
N1643      H1648   1.045       .  S
N1646      H1649   1.046       .  S
N1646      H1650   1.045       .  S
C1651      C1652   1.408       .  A
C1651      C1656   1.395       .  A
C1651      H1658   1.084       .  S
C1652      C1653   1.408       .  A
C1653      C1654   1.405       .  A
C1653      N1660   1.432       .  S
C1654      C1655   1.414       .  A
C1654      H1659   1.084       .  S
C1655      C1656   1.412       .  A
C1656      N1657   1.432       .  S
N1657      H1661   1.045       .  S
N1657      H1662   1.045       .  S
N1660      H1663   1.045       .  S
N1660      H1664   1.046       .  S
C1665      C1666   1.397       .  A
C1665      C1670   1.404       .  A
C1665      H1672   1.084       .  S
C1666      C1667   1.416       .  A
C1667      C1668   1.408       .  A
C1667      N1674   1.432       .  S
C1668      C1669   1.400       .  A
C1668      H1673   1.083       .  S
C1669      C1670   1.421       .  A
C1670      N1671   1.434       .  S
N1671      H1675   1.046       .  S
N1671      H1676   1.046       .  S
N1674      H1677   1.046       .  S
N1674      H1678   1.046       .  S
C1679      C1680   1.414       .  A
C1679      C1684   1.412       .  A
C1679      H1686   1.083       .  S
C1680      C1681   1.404       .  A
C1681      C1682   1.397       .  A
C1681      N1688   1.432       .  S
C1682      C1683   1.410       .  A
C1682      H1687   1.083       .  S
C1683      C1684   1.408       .  A
C1684      N1685   1.437       .  S
N1685      H1689   1.046       .  S
N1685      H1690   1.046       .  S
N1688      H1691   1.046       .  S
N1688      H1692   1.046       .  S
C1693      C1694   1.411       .  A
C1693      C1698   1.396       .  A
C1693      H1700   1.083       .  S
C1694      C1695   1.411       .  A
C1695      C1696   1.404       .  A
C1695      N1702   1.432       .  S
C1696      C1697   1.412       .  A
C1696      H1701   1.083       .  S
C1697      C1698   1.404       .  A
C1698      N1699   1.433       .  S
N1699      H1703   1.046       .  S
N1699      H1704   1.046       .  S
N1702      H1705   1.045       .  S
N1702      H1706   1.046       .  S
C1707      C1708   1.397       .  A
C1707      C1712   1.403       .  A
C1707      H1714   1.084       .  S
C1708      C1709   1.413       .  A
C1709      C1710   1.406       .  A
C1709      N1716   1.432       .  S
C1710      C1711   1.400       .  A
C1710      H1715   1.084       .  S
C1711      C1712   1.418       .  A
C1712      N1713   1.433       .  S
N1713      H1717   1.046       .  S
N1713      H1718   1.046       .  S
N1716      H1719   1.046       .  S
N1716      H1720   1.045       .  S
C1721      C1722   1.395       .  A
C1721      C1726   1.397       .  A
C1721      H1728   1.084       .  S
C1722      C1723   1.420       .  A
C1723      C1724   1.409       .  A
C1723      N1730   1.432       .  S
C1724      C1725   1.401       .  A
C1724      H1729   1.084       .  S
C1725      C1726   1.421       .  A
C1726      N1727   1.433       .  S
N1727      H1731   1.045       .  S
N1727      H1732   1.046       .  S
N1730      H1733   1.044       .  S
N1730      H1734   1.046       .  S
C1735      C1736   1.412       .  A
C1735      C1740   1.412       .  A
C1735      H1742   1.083       .  S
C1736      C1737   1.409       .  A
C1737      C1738   1.394       .  A
C1737      N1744   1.433       .  S
C1738      C1739   1.411       .  A
C1738      H1743   1.084       .  S
C1739      C1740   1.409       .  A
C1740      N1741   1.437       .  S
N1741      H1745   1.046       .  S
N1741      H1746   1.046       .  S
N1744      H1747   1.046       .  S
N1744      H1748   1.044       .  S
C1749      C1750   1.410       .  A
C1749      C1754   1.407       .  A
C1749      H1756   1.083       .  S
C1750      C1751   1.405       .  A
C1751      C1752   1.402       .  A
C1751      N1758   1.439       .  S
C1752      C1753   1.414       .  A
C1752      H1757   1.083       .  S
C1753      C1754   1.407       .  A
C1754      N1755   1.437       .  S
N1755      H1759   1.046       .  S
N1755      H1760   1.046       .  S
N1758      H1761   1.046       .  S
N1758      H1762   1.046       .  S
C1763      C1764   1.400       .  A
C1763      C1768   1.410       .  A
C1763      H1770   1.084       .  S
C1764      C1765   1.420       .  A
C1765      C1766   1.401       .  A
C1765      N1772   1.433       .  S
C1766      C1767   1.395       .  A
C1766      H1771   1.084       .  S
C1767      C1768   1.420       .  A
C1768      N1769   1.432       .  S
N1769      H1773   1.046       .  S
N1769      H1774   1.046       .  S
N1772      H1775   1.046       .  S
N1772      H1776   1.046       .  S
C1777      C1778   1.413       .  A
C1777      C1782   1.400       .  A
C1777      H1784   1.083       .  S
C1778      C1779   1.405       .  A
C1779      C1780   1.409       .  A
C1779      N1786   1.431       .  S
C1780      C1781   1.412       .  A
C1780      H1785   1.083       .  S
C1781      C1782   1.403       .  A
C1782      N1783   1.433       .  S
N1783      H1787   1.046       .  S
N1783      H1788   1.046       .  S
N1786      H1789   1.046       .  S
N1786      H1790   1.046       .  S
C1791      C1792   1.396       .  A
C1791      C1796   1.397       .  A
C1791      H1798   1.084       .  S
C1792      C1793   1.417       .  A
C1793      C1794   1.402       .  A
C1793      N1800   1.433       .  S
C1794      C1795   1.400       .  A
C1794      H1799   1.084       .  S
C1795      C1796   1.418       .  A
C1796      N1797   1.433       .  S
N1797      H1801   1.043       .  S
N1797      H1802   1.046       .  S
N1800      H1803   1.046       .  S
N1800      H1804   1.045       .  S
C1805      C1806   1.398       .  A
C1805      C1810   1.411       .  A
C1805      H1812   1.084       .  S
C1806      C1807   1.417       .  A
C1807      C1808   1.402       .  A
C1807      N1814   1.439       .  S
C1808      C1809   1.396       .  A
C1808      H1813   1.084       .  S
C1809      C1810   1.419       .  A
C1810      N1811   1.437       .  S
N1811      H1815   1.045       .  S
N1811      H1816   1.046       .  S
N1814      H1817   1.046       .  S
N1814      H1818   1.046       .  S
