geometry optimzed in LAMMPS
_audit_creation_date              2020-11-30 
_audit_creation_method            'lammps2cif' 
_symmetry_space_group_name_H-M    'P1' 
_symmetry_Int_Tables_number       1 
_symmetry_cell_setting            triclinic 
loop_ 
_symmetry_equiv_pos_as_xyz 
  x,y,z 
_cell_length_a                    29.92635805 
_cell_length_b                    29.9531056827225 
_cell_length_c                    48.254636385193194 
_cell_angle_alpha                 90.30797277484417 
_cell_angle_beta                  90.64115580029551 
_cell_angle_gamma                 119.85217447929463 
loop_ 
_atom_site_label 
_atom_site_type_symbol 
_atom_site_fract_x 
_atom_site_fract_y 
_atom_site_fract_z 
_atom_site_charge 
O1          O  0.62035275  0.05752288  0.29999827    -0.75900
O2          O  0.54762158  0.99477410  0.31969633    -0.54800
C3          C  0.59441508  0.03060986  0.32106875     0.77900
O4          O  0.44996377  0.08942274  0.20091450    -0.60500
O5          O  0.51731537  0.09756894  0.17823464    -0.53500
C6          C  0.47545873  0.09797650  0.17818106     0.69900
O7          O  0.46277392  0.07760610  0.29912476    -0.75000
O8          O  0.46892031  0.01356496  0.32068728    -0.55600
C9          C  0.46147081  0.05192253  0.32100794     0.75900
O10         O  0.64614407  0.06842663  0.20182110    -0.60200
O11         O  0.59442097  0.08955248  0.18001843    -0.53300
C12         C  0.63124592  0.08067544  0.17928486     0.72500
Zr13       Zr  0.60692967  0.06064845  0.24888935     2.54700
O14         O  0.65966685  0.15427385  0.25187106    -0.80700
O15         O  0.69023101  0.06749591  0.25930642    -0.94100
Zr16       Zr  0.47849476  0.07705475  0.24835950     2.64700
O17         O  0.53767881  0.16982330  0.24832686    -0.99100
O18         O  0.41908551  0.10803045  0.25930473    -0.81200
O19         O  0.53334116  0.05281952  0.26886123    -0.84500
O20         O  0.55318574  0.08701397  0.22625931    -2.19200
O21         O  0.53819766  0.91456024  0.17642270    -0.67900
O22         O  0.53225105  0.97982925  0.15583412    -0.52500
C23         C  0.53940822  0.94136731  0.15505614     0.70900
O24         O  0.34420307  0.89660074  0.27206902    -0.60800
O25         O  0.40614106  0.91885944  0.30546415    -0.52800
C26         C  0.35931239  0.89808123  0.29759531     0.72700
O27         O  0.37602902  0.93302258  0.17589372    -0.72200
O28         O  0.45120968  0.99164040  0.15614050    -0.50900
C29         C  0.40344748  0.95818371  0.15477857     0.74100
O30         O  0.53295023  0.88199793  0.27307429    -0.67500
O31         O  0.46963818  0.88615754  0.29347981    -0.54700
C32         C  0.50816408  0.87967914  0.29522832     0.72400
Zr33       Zr  0.51790805  0.91121460  0.22698239     2.77500
O34         O  0.45380746  0.82068255  0.21946231    -0.98300
O35         O  0.57851676  0.88039680  0.21920303    -0.79100
Zr36       Zr  0.39052245  0.92803576  0.22677616     2.70100
O37         O  0.33715894  0.83672141  0.21515096    -0.80400
O38         O  0.31319915  0.93499878  0.22045355    -0.99400
Zr39       Zr  0.48491626  0.97061921  0.28404054     2.21500
Zr40       Zr  0.51337983  0.02032629  0.19231404     2.11100
O41         O  0.46102444  0.93147653  0.20247987    -2.48100
O42         O  0.44992701  0.91215067  0.24873279    -0.80100
O43         O  0.56456451  0.99694380  0.21614522    -0.72300
O44         O  0.42562788  0.99129199  0.26274524    -2.33300
O45         O  0.55862405  0.97452129  0.26315733    -2.29500
O46         O  0.44447837  0.01242300  0.21587212    -0.74100
H47         H  0.57324358  0.12163669  0.21951406     0.77900
H48         H  0.39976758  0.99008535  0.27500542     0.79000
H49         H  0.44864340  0.91069415  0.18583525     0.81200
H50         H  0.58104748  0.96912508  0.27546223     0.78800
H51         H  0.38474955  0.07667071  0.26016837     0.41900
H52         H  0.28812888  0.91083060  0.23386257     0.40800
H53         H  0.30373659  0.82605307  0.22407743     0.40500
H54         H  0.43001744  0.81159871  0.23521239     0.38400
H55         H  0.61152638  0.91143201  0.21470401     0.41600
H56         H  0.71598090  0.09972412  0.25041472     0.36300
H57         H  0.63735191  0.16611172  0.26036695     0.42500
H58         H  0.51824062  0.18426635  0.23884930     0.38900
H59         H  0.43328654  0.82028267  0.20312344     0.43800
H60         H  0.69047596  0.03971240  0.24821950     0.42500
H61         H  0.54013367  0.18082628  0.26793227     0.42700
H62         H  0.32277618  0.96961902  0.22777111     0.43000
O63         O  0.08156873  0.43300822  0.28407125    -0.75900
O64         O  0.09369937  0.50432886  0.30401655    -0.54800
C65         C  0.08954999  0.46055085  0.30613027     0.77900
O66         O  0.06653862  0.61429558  0.18738019    -0.60500
O67         O  0.00157026  0.54374629  0.16565692    -0.53500
C68         C  0.03968801  0.58975936  0.16535693     0.69900
O69         O  0.10017680  0.64376596  0.28516162    -0.75000
O70         O  0.09805546  0.57986301  0.30937159    -0.55600
C71         C  0.10420845  0.62471161  0.30852177     0.75900
O72         O  0.05222487  0.43607413  0.18711616    -0.60200
O73         O  0.99172225  0.44991655  0.16616429    -0.53300
C74         C  0.02655387  0.43715501  0.16545047     0.72500
Zr75       Zr  0.05716497  0.45461414  0.23822915     2.54700
O76         O  0.15007860  0.49399339  0.23226706    -0.80700
O77         O  0.05535254  0.37301667  0.23042875    -0.94100
Zr78       Zr  0.07132264  0.59859239  0.23835141     2.64700
O79         O  0.16333638  0.63232522  0.23174953    -0.99100
O80         O  0.09291572  0.68733843  0.22976554    -0.81200
O81         O  0.07203501  0.53022216  0.25977320    -0.84500
O82         O  0.05305940  0.52168925  0.21372031    -2.19200
O83         O  0.89261522  0.35035844  0.21367698    -0.67900
O84         O  0.88427771  0.40958688  0.19084425    -0.52500
C85         C  0.88376266  0.36736848  0.19089134     0.70900
O86         O  0.92783427  0.55372948  0.31109685    -0.60800
O87         O  0.99156056  0.54472610  0.33185501    -0.52800
C88         C  0.95507611  0.55505484  0.33269345     0.72700
O89         O  0.91473508  0.56709003  0.21233664    -0.72200
O90         O  0.89334235  0.49470046  0.18981101    -0.50900
C91         C  0.90164376  0.54018644  0.18955874     0.74100
O92         O  0.91385503  0.37673779  0.31110581    -0.67500
O93         O  0.98004767  0.44751770  0.33216726    -0.54700
C94         C  0.94168513  0.40178007  0.33268749     0.72400
Zr95       Zr  0.90925264  0.39365016  0.26043747     2.77500
O96         O  0.81817740  0.36724033  0.26432322    -0.98300
O97         O  0.87570313  0.30251014  0.27009197    -0.79100
Zr98       Zr  0.92291239  0.53586866  0.25967197     2.70100
O99         O  0.82894320  0.49005620  0.26069803    -0.80400
O100        O  0.90966536  0.60805297  0.27074532    -0.99400
Zr101      Zr  0.01738809  0.50842337  0.29606676     2.21500
Zr102      Zr  0.96359084  0.48367554  0.20246467     2.11100
O103        O  0.89799439  0.45660286  0.23662002    -2.48100
O104        O  0.93425788  0.47291510  0.28049756    -0.80100
O105        O  0.97201534  0.42346574  0.22730159    -0.72300
O106        O  0.00951169  0.57556391  0.27432787    -2.33300
O107        O  0.99561928  0.42779174  0.27480308    -2.29500
O108        O  0.98533662  0.55734557  0.22696215    -0.74100
H109        H  0.07383944  0.53043563  0.19733027     0.77900
H110        H  0.01384754  0.60315203  0.28647462     0.79000
H111        H  0.86283328  0.44183536  0.22996709     0.81200
H112        H  0.99571826  0.40249958  0.28702873     0.78800
H113        H  0.06052466  0.68513910  0.22297871     0.41900
H114        H  0.93697209  0.63779856  0.26080045     0.40800
H115        H  0.82024824  0.47584140  0.27959868     0.40500
H116        H  0.79989425  0.32913347  0.26396037     0.38400
H117        H  0.90371065  0.29556249  0.26514938     0.41600
H118        H  0.08583320  0.38174954  0.21896767     0.36300
H119        H  0.16469919  0.49789483  0.25121679     0.42500
H120        H  0.18045691  0.66443385  0.24302535     0.38900
H121        H  0.81457337  0.37652878  0.28356466     0.43800
H122        H  0.02541305  0.35259228  0.21791030     0.42500
H123        H  0.17142134  0.60820731  0.24155960     0.42700
H124        H  0.87722980  0.60011786  0.26095685     0.43000
O125        O  0.54269176  0.64705324  0.29731045    -0.75900
O126        O  0.47776854  0.57835498  0.31488888    -0.54800
C127        C  0.51640951  0.62254815  0.31850495     0.77900
O128        O  0.38653993  0.44350795  0.20011669    -0.60500
O129        O  0.46054726  0.46018431  0.17852337    -0.53500
C130        C  0.41266087  0.44610695  0.17816229     0.69900
O131        O  0.35657712  0.44425060  0.29774930    -0.75000
O132        O  0.41967721  0.48322349  0.33066441    -0.55600
C133        C  0.37266998  0.45703225  0.32336081     0.75900
O134        O  0.55022958  0.62231808  0.20029732    -0.60200
O135        O  0.54535121  0.55251799  0.17845537    -0.53300
C136        C  0.55252419  0.59833363  0.17824376     0.72500
Zr137      Zr  0.52993638  0.60471177  0.25092338     2.54700
O138        O  0.46967319  0.63596323  0.24248003    -0.80700
O139        O  0.59461968  0.69559730  0.24649406    -0.94100
Zr140      Zr  0.40149316  0.46200690  0.25127824     2.64700
O141        O  0.35386129  0.50778425  0.24448421    -0.99100
O142        O  0.32029784  0.38212270  0.24356515    -0.81200
O143        O  0.46222814  0.53645476  0.27299413    -0.84500
O144        O  0.47142938  0.52828579  0.22629923    -2.19200
O145        O  0.65667550  0.57475891  0.22616851    -0.67900
O146        O  0.60495906  0.50254427  0.20378146    -0.52500
C147        C  0.64166905  0.54811876  0.20343385     0.70900
O148        O  0.46937794  0.38003160  0.32166206    -0.60800
O149        O  0.48607149  0.45389158  0.34412167    -0.52800
C150        C  0.47349788  0.40649531  0.34390920     0.72700
O151        O  0.45611107  0.35685140  0.22401365    -0.72200
O152        O  0.52327133  0.41520781  0.20138467    -0.50900
C153        C  0.48039914  0.37419782  0.20111427     0.74100
O154        O  0.63012859  0.55690041  0.32422915    -0.67500
O155        O  0.55783774  0.55052085  0.34283253    -0.54700
C156        C  0.60369439  0.55904716  0.34492532     0.72400
Zr157      Zr  0.61719137  0.54184904  0.27254967     2.77500
O158        O  0.67269115  0.50364924  0.27394153    -0.98300
O159        O  0.69937097  0.61811155  0.28456031    -0.79100
Zr160      Zr  0.48779833  0.39788438  0.27105383     2.70100
O161        O  0.54707638  0.36415054  0.27322405    -0.80400
O162        O  0.42735368  0.30678593  0.27908761    -0.99400
Zr163      Zr  0.49636503  0.51069807  0.30744168     2.21500
Zr164      Zr  0.52335310  0.49128917  0.21482515     2.11100
O165        O  0.56234403  0.46256279  0.24861729    -2.48100
O166        O  0.54393509  0.47596045  0.29203528    -0.80100
O167        O  0.57541486  0.56429199  0.23987128    -0.72300
O168        O  0.43583744  0.43142760  0.28622301    -2.33300
O169        O  0.56982237  0.58079753  0.28700281    -2.29500
O170        O  0.45531262  0.43141740  0.23933958    -0.74100
H171        H  0.45888016  0.53725406  0.20996069     0.77900
H172        H  0.41022260  0.40649048  0.29833614     0.79000
H173        H  0.58202545  0.44742175  0.24169292     0.81200
H174        H  0.59212504  0.60841836  0.29953958     0.78800
H175        H  0.32442887  0.35559543  0.25357513     0.41900
H176        H  0.39695849  0.29810361  0.26710383     0.40800
H177        H  0.54604934  0.35048482  0.25434868     0.40500
H178        H  0.65154371  0.46926902  0.28217198     0.38400
H179        H  0.69543103  0.64771926  0.27892023     0.41600
H180        H  0.58103141  0.70898988  0.23189747     0.36300
H181        H  0.47957721  0.65304904  0.22426702     0.42500
H182        H  0.37798444  0.53970567  0.23477802     0.38900
H183        H  0.67681165  0.49663791  0.25433322     0.43800
H184        H  0.62479694  0.69589478  0.23810551     0.42500
H185        H  0.32711215  0.48710433  0.23031974     0.42700
H186        H  0.44327615  0.28799011  0.27059692     0.43000
O187        O  0.79546332  0.44000983  0.02314980    -0.75900
O188        O  0.87929550  0.49198363  0.01260700    -0.54800
C189        C  0.84003855  0.44663240  0.01702031     0.77900
O190        O  0.72998285  0.61005939  0.45866645    -0.60500
O191        O  0.65416036  0.57194722  0.47901560    -0.53500
C192        C  0.68136727  0.59114159  0.45719060     0.69900
O193        O  0.83896047  0.56205455  0.43896731    -0.75000
O194        O  0.90467066  0.56859560  0.46591322    -0.55600
C195        C  0.88353963  0.56687116  0.44199138     0.75900
O196        O  0.64335824  0.43383282  0.53257065    -0.60200
O197        O  0.61184562  0.48794379  0.52532973    -0.53300
C198        C  0.60528405  0.44180627  0.52886420     0.72500
Zr199      Zr  0.74123699  0.47740841  0.03115826     2.54700
O200        O  0.68818876  0.38649098  0.51092218    -0.80700
O201        O  0.72992984  0.44177503  0.07748851    -0.94100
Zr202      Zr  0.76775378  0.55580419  0.46386631     2.64700
O203        O  0.70142468  0.47456649  0.44341802    -0.99100
O204        O  0.76386796  0.56510748  0.41395101    -0.81200
O205        O  0.79360431  0.50983025  0.49345914    -0.84500
O206        O  0.70626172  0.51081238  0.49816471    -2.19200
O207        O  0.75863632  0.63696166  0.09161455    -0.67900
O208        O  0.68066283  0.58675234  0.07114184    -0.52500
C209        C  0.70963919  0.61069559  0.09244809     0.70900
O210        O  0.93785148  0.72094682  0.50264487    -0.60800
O211        O  0.95598143  0.65768607  0.00588857    -0.52800
C212        C  0.97219090  0.70577995  0.00169713     0.72700
O213        O  0.77693573  0.71791934  0.50366794    -0.72200
O214        O  0.69779012  0.65423713  0.51806852    -0.50900
C215        C  0.72799344  0.69986846  0.50887298     0.74100
O216        O  0.90566923  0.64286327  0.07172419    -0.67500
O217        O  0.92631359  0.58616398  0.05638607    -0.54700
C218        C  0.92264626  0.61230692  0.07658524     0.72400
Zr219      Zr  0.81366626  0.60692178  0.07333261     2.77500
O220        O  0.85263238  0.65956498  0.11489103    -0.98300
O221        O  0.79394577  0.54408626  0.10971249    -0.79100
Zr222      Zr  0.84102219  0.68478125  0.50817599     2.70100
O223        O  0.88651770  0.76419046  0.03660197    -0.80400
O224        O  0.86582724  0.73584687  0.46618499    -0.99400
Zr225      Zr  0.87929739  0.57633353  0.01260407     2.21500
Zr226      Zr  0.69634897  0.57371174  0.52377633     2.11100
O227        O  0.78363696  0.64705730  0.04132347    -2.48100
O228        O  0.87224443  0.64420640  0.03642932    -0.80100
O229        O  0.73249930  0.54063446  0.05602961    -0.72300
O230        O  0.84803264  0.61880474  0.48331659    -2.33300
O231        O  0.82062405  0.53942833  0.05071751    -2.29500
O232        O  0.76144549  0.61876327  0.48986909    -0.74100
H233        H  0.67423062  0.48600786  0.48934204     0.77900
H234        H  0.87321039  0.63665962  0.46921973     0.79000
H235        H  0.77946012  0.67423237  0.04949613     0.81200
H236        H  0.83190199  0.52223275  0.06350050     0.78800
H237        H  0.78796981  0.60204797  0.41064907     0.41900
H238        H  0.87062736  0.71419134  0.45230678     0.40800
H239        H  0.90796154  0.79313278  0.02421695     0.40500
H240        H  0.85882138  0.69430136  0.11016817     0.38400
H241        H  0.77176710  0.54989777  0.12259223     0.41600
H242        H  0.74533250  0.41921733  0.07671507     0.36300
H243        H  0.69687910  0.39169284  0.49102394     0.42500
H244        H  0.67810672  0.48340622  0.43313202     0.38900
H245        H  0.82525363  0.64674164  0.12893085     0.43800
H246        H  0.69242304  0.41759586  0.07871174     0.42500
H247        H  0.71915604  0.46603910  0.42887797     0.42700
H248        H  0.83440368  0.73608359  0.45980122     0.43000
O249        O  0.64631315  0.21039727  0.00833740    -0.75900
O250        O  0.61441834  0.12506046  0.00126049    -0.54800
C251        C  0.60831306  0.16477335  0.00480692     0.77900
O252        O  0.87882345  0.26799530  0.44354697    -0.60500
O253        O  0.90947392  0.34289781  0.46551807    -0.53500
C254        C  0.90295002  0.31691272  0.44299846     0.69900
O255        O  0.72177506  0.14731984  0.42571992    -0.75000
O256        O  0.66217497  0.08573164  0.45335988    -0.55600
C257        C  0.68169350  0.10364325  0.42937872     0.75900
O258        O  0.78780729  0.35304714  0.51509945    -0.60200
O259        O  0.87408029  0.38432890  0.51395305    -0.53300
C260        C  0.83422942  0.39086792  0.51536642     0.72500
Zr261      Zr  0.73753295  0.26573360  0.01143205     2.54700
O262        O  0.69711764  0.30139864  0.48398893    -0.80700
O263        O  0.70758817  0.29183576  0.05183265    -0.94100
Zr264      Zr  0.78690966  0.22195241  0.44917722     2.64700
O265        O  0.76645807  0.27991480  0.42374155    -0.99100
O266        O  0.80423966  0.21580074  0.40057052    -0.81200
O267        O  0.71442777  0.19862143  0.47737288    -0.84500
O268        O  0.80254419  0.28720762  0.48196938    -2.19200
O269        O  0.87834012  0.25837348  0.07816587    -0.67900
O270        O  0.90216053  0.33370320  0.05750423    -0.52500
C271        C  0.89616944  0.30662594  0.07938160     0.70900
O272        O  0.78041033  0.05590856  0.49241311    -0.60800
O273        O  0.70091409  0.04689647  0.99525606    -0.52800
C274        C  0.73266354  0.02991283  0.99339403     0.72700
O275        O  0.93904376  0.21606677  0.49646379    -0.72200
O276        O  0.95247503  0.29706444  0.50611412    -0.50900
C277        C  0.96884795  0.26569185  0.50032044     0.74100
O278        O  0.74476430  0.10770817  0.06335683    -0.67500
O279        O  0.66703482  0.08303615  0.04557865    -0.54700
C280        C  0.69625056  0.08606595  0.06624829     0.72400
Zr281      Zr  0.79269876  0.20016775  0.06106439     2.77500
O282        O  0.80538491  0.17516619  0.10721394    -0.98300
O283        O  0.74530499  0.22367108  0.09315387    -0.79100
Zr284      Zr  0.84198852  0.15388719  0.49723697     2.70100
O285        O  0.88006238  0.12374853  0.03259983    -0.80400
O286        O  0.87453262  0.13268158  0.45608442    -0.99400
Zr287      Zr  0.69908063  0.12534743  0.00058044     2.21500
Zr288      Zr  0.87423211  0.29987154  0.50997266     2.11100
O289        O  0.86338982  0.22446611  0.03072579    -2.48100
O290        O  0.77286504  0.13554729  0.02694263    -0.80100
O291        O  0.80751950  0.27748733  0.03958076    -0.72300
O292        O  0.76944007  0.14405191  0.47090235    -2.33300
O293        O  0.71931764  0.19014022  0.03565083    -2.29500
O294        O  0.85686865  0.23236455  0.47678004    -0.74100
H295        H  0.80994865  0.31858445  0.47273754     0.77900
H296        H  0.76236620  0.11717363  0.45752412     0.79000
H297        H  0.89448365  0.22910417  0.03961219     0.81200
H298        H  0.69042571  0.18022347  0.04775231     0.78800
H299        H  0.81916059  0.19278831  0.40039025     0.41900
H300        H  0.84475274  0.11665790  0.44303062     0.40800
H301        H  0.86796501  0.12968385  0.05053020     0.40500
H302        H  0.83552626  0.17008842  0.10564562     0.38400
H303        H  0.77056925  0.25912341  0.09933547     0.41600
H304        H  0.73756834  0.30723161  0.06477357     0.36300
H305        H  0.67736502  0.27569151  0.46924858     0.42500
H306        H  0.74350228  0.28584428  0.43592421     0.38900
H307        H  0.81747851  0.20616206  0.11915632     0.43800
H308        H  0.68244200  0.25927845  0.06067064     0.42500
H309        H  0.79896472  0.31336385  0.42342776     0.42700
H310        H  0.89818284  0.16636363  0.44773271     0.43000
O311        O  0.35383848  0.79208958  0.96887898    -0.75900
O312        O  0.38565152  0.87797881  0.97450573    -0.54800
C313        C  0.39204716  0.83816962  0.97170189     0.77900
O314        O  0.09428267  0.72945592  0.42466457    -0.60500
O315        O  0.07719570  0.65444922  0.44122492    -0.53500
C316        C  0.08104592  0.68264681  0.42032902     0.69900
O317        O  0.24077035  0.87435825  0.40919642    -0.75000
O318        O  0.31865118  0.89619301  0.42705037    -0.55600
C319        C  0.28831858  0.89007780  0.40624052     0.75900
O320        O  0.20231688  0.64157472  0.47533752    -0.60200
O321        O  0.11851924  0.61039658  0.48604644    -0.53300
C322        C  0.15754719  0.60394744  0.48125583     0.72500
Zr323      Zr  0.26111806  0.73731463  0.96961901     2.54700
O324        O  0.27156539  0.70780357  0.42358981    -0.80700
O325        O  0.30137759  0.69239902  0.99090333    -0.94100
Zr326      Zr  0.18524783  0.78919781  0.42573467     2.64700
O327        O  0.20823894  0.74985762  0.38825973    -0.99100
O328        O  0.14700969  0.80638820  0.38531904    -0.81200
O329        O  0.26596218  0.80406896  0.44397757    -0.84500
O330        O  0.17937303  0.71611722  0.44880554    -2.19200
O331        O  0.15547389  0.72467848  0.06149177    -0.67900
O332        O  0.09214095  0.66509347  0.03348165    -0.52500
C333        C  0.11181141  0.68400933  0.05777663     0.70900
O334        O  0.21560408  0.93827069  0.49584649    -0.60800
O335        O  0.29934935  0.95777642  0.98136681    -0.52800
C336        C  0.26917989  0.97411792  0.98990623     0.72700
O337        O  0.05553141  0.77956796  0.49905070    -0.72200
O338        O  0.04134396  0.69784197  0.49185496    -0.50900
C339        C  0.02533232  0.72958451  0.49735279     0.74100
O340        O  0.26833861  0.88106870  0.04281568    -0.67500
O341        O  0.34350505  0.91673180  0.02170097    -0.54700
C342        C  0.31714681  0.90920801  0.04388365     0.72400
Zr343      Zr  0.22805267  0.78914327  0.03687353     2.77500
O344        O  0.23522090  0.80684943  0.08660270    -0.98300
O345        O  0.29122114  0.76921530  0.05680915    -0.79100
Zr346      Zr  0.15223617  0.84058396  0.49311186     2.70100
O347        O  0.13473908  0.87495916  0.03504437    -0.80400
O348        O  0.11138368  0.87484147  0.46270154    -0.99400
Zr349      Zr  0.30084499  0.87822852  0.97668998     2.21500
Zr350      Zr  0.11922865  0.69472959  0.48612918     2.11100
O351        O  0.14816713  0.77258764  0.01716807    -2.48100
O352        O  0.23586721  0.85880940  0.01087414    -0.80100
O353        O  0.20304664  0.71781650  0.00674641    -0.72300
O354        O  0.21425457  0.85939204  0.45796309    -2.33300
O355        O  0.29022086  0.80555810  0.00254898    -2.29500
O356        O  0.12564078  0.76883762  0.46218393    -0.74100
H357        H  0.16964769  0.68777685  0.43600857     0.77900
H358        H  0.21763780  0.89039725  0.45003263     0.79000
H359        H  0.12257410  0.76532144  0.03110739     0.81200
H360        H  0.32213686  0.81280439  0.01155394     0.78800
H361        H  0.12435329  0.81849784  0.39306984     0.41900
H362        H  0.08997709  0.84614488  0.44968625     0.40800
H363        H  0.16356415  0.88266193  0.04806532     0.40500
H364        H  0.20489158  0.81038112  0.09104553     0.38400
H365        H  0.27482788  0.73131832  0.05498544     0.41600
H366        H  0.32098753  0.71440143  0.00697625     0.36300
H367        H  0.28427508  0.68353849  0.42728942     0.42500
H368        H  0.20376522  0.76515743  0.37104932     0.38900
H369        H  0.22902839  0.77490466  0.09588211     0.43800
H370        H  0.32783674  0.69541079  0.97773743     0.42500
H371        H  0.24597690  0.76491630  0.39025297     0.42700
H372        H  0.08617616  0.87775222  0.47459272     0.43000
O373        O  0.60724393  0.85783745  0.40924202    -0.75900
O374        O  0.56197053  0.89012596  0.42967547    -0.54800
C375        C  0.57988995  0.87951239  0.40784719     0.77900
O376        O  0.43164039  0.64179779  0.48933630    -0.60500
O377        O  0.48510127  0.61024494  0.49815303    -0.53500
C378        C  0.43942013  0.60416404  0.49437209     0.69900
O379        O  0.43429259  0.79143506  0.97618908    -0.75000
O380        O  0.48928349  0.87745264  0.97459444    -0.55600
C381        C  0.44281037  0.83773917  0.97403246     0.75900
O382        O  0.62038054  0.72220941  0.43543920    -0.60200
O383        O  0.56578332  0.64794523  0.45363214    -0.53300
C384        C  0.58909483  0.67437815  0.43227540     0.72500
Zr385      Zr  0.58425414  0.77794855  0.43226495     2.54700
O386        O  0.51358409  0.72584055  0.40010750    -0.80700
O387        O  0.62575144  0.78503485  0.38800112    -0.94100
Zr388      Zr  0.47187929  0.73746033  0.98330503     2.64700
O389        O  0.40352633  0.69162009  0.44568453    -0.99100
O390        O  0.40647571  0.71151433  0.01867502    -0.81200
O391        O  0.52285587  0.79652150  0.45189386    -0.84500
O392        O  0.52281268  0.71046115  0.46045173    -2.19200
O393        O  0.71878474  0.77798253  0.50105703    -0.67900
O394        O  0.64959700  0.69609459  0.50136105    -0.52500
C395        C  0.69837070  0.72798576  0.50306674     0.70900
O396        O  0.61387127  0.89371033  0.04198471    -0.60800
O397        O  0.56554073  0.91959554  0.02081126    -0.52800
C398        C  0.58658683  0.91529610  0.04317640     0.72700
O399        O  0.57705562  0.73746849  0.07216568    -0.72200
O400        O  0.57048226  0.67064782  0.04627427    -0.50900
C401        C  0.57410181  0.69340474  0.06987684     0.74100
O402        O  0.71941018  0.93693345  0.49407872    -0.67500
O403        O  0.65639474  0.95541079  0.98167993    -0.54700
C404        C  0.70372512  0.97186237  0.98920458     0.72400
Zr405      Zr  0.68288607  0.83918708  0.49454551     2.77500
O406        O  0.74629408  0.88001443  0.03383820    -0.98300
O407        O  0.75338157  0.86745360  0.46213384    -0.79100
Zr408      Zr  0.57103561  0.80125137  0.04450172     2.70100
O409        O  0.60316445  0.83003355  0.09156986    -0.80400
O410        O  0.49418788  0.78812970  0.06839061    -0.99400
Zr411      Zr  0.57388808  0.87705158  0.97908595     2.21500
Zr412      Zr  0.56857721  0.69390293  0.49681199     2.11100
O413        O  0.62794278  0.77769018  0.02374566    -2.48100
O414        O  0.62666278  0.86454164  0.01334591    -0.80100
O415        O  0.63049447  0.76292988  0.46795169    -0.72300
O416        O  0.51865466  0.81188355  0.01078931    -2.33300
O417        O  0.63355687  0.85375233  0.45959841    -2.29500
O418        O  0.51810932  0.72418349  0.01936620    -0.74100
H419        H  0.50229132  0.68005801  0.44921312     0.77900
H420        H  0.49561794  0.82120613  0.01963353     0.79000
H421        H  0.64773817  0.77179384  0.03771011     0.81200
H422        H  0.65849222  0.88231669  0.44889982     0.78800
H423        H  0.42026799  0.70123759  0.03463576     0.41900
H424        H  0.48157703  0.75493214  0.07797270     0.40800
H425        H  0.64049479  0.84200979  0.09078669     0.40500
H426        H  0.73960121  0.90667410  0.04172726     0.38400
H427        H  0.74321873  0.83720606  0.44984689     0.41600
H428        H  0.65950326  0.81714542  0.38932622     0.36300
H429        H  0.49945896  0.74837707  0.39493217     0.42500
H430        H  0.41605157  0.71705008  0.43057411     0.38900
H431        H  0.73235377  0.85222795  0.04768821     0.43800
H432        H  0.60562238  0.79203686  0.37401066     0.42500
H433        H  0.40865699  0.66335293  0.43874064     0.42700
H434        H  0.50711285  0.81426280  0.08348615     0.43000
O435        O  0.20730461  0.56680088  0.98412072    -0.75900
O436        O  0.12124000  0.51188081  0.98625442    -0.54800
C437        C  0.16083390  0.55804008  0.98392368     0.77900
O438        O  0.26005997  0.36812959  0.43784426    -0.60500
O439        O  0.33710344  0.42324855  0.45448061    -0.53500
C440        C  0.30761298  0.39798445  0.43379847     0.69900
O441        O  0.12346512  0.37816200  0.41767991    -0.75000
O442        O  0.09117380  0.42205012  0.44029741    -0.55600
C443        C  0.09753246  0.40137316  0.41810485     0.75900
O444        O  0.35095226  0.56176344  0.49258071    -0.60200
O445        O  0.38339459  0.50849541  0.49881448    -0.53300
C446        C  0.38912642  0.55402971  0.49554629     0.72500
Zr447      Zr  0.26323303  0.53158303  0.98915700     2.54700
O448        O  0.29402435  0.58793208  0.45246262    -0.80700
O449        O  0.29635625  0.60375857  0.02184362    -0.94100
Zr450      Zr  0.20713016  0.40757046  0.43806083     2.64700
O451        O  0.25062670  0.48032883  0.40692641    -0.99100
O452        O  0.19804705  0.36790647  0.39259462    -0.81200
O453        O  0.19134080  0.46949455  0.45985821    -0.84500
O454        O  0.27879497  0.46996969  0.46488347    -2.19200
O455        O  0.27525845  0.42835788  0.07441500    -0.67900
O456        O  0.33782493  0.43206544  0.04653001    -0.52500
C457        C  0.31757565  0.42856284  0.07064113     0.70900
O458        O  0.05691309  0.27548250  0.50082749    -0.60800
O459        O  0.04478705  0.34539446  0.98884914    -0.52800
C460        C  0.02979940  0.29867045  0.99615418     0.72700
O461        O  0.21560015  0.27473198  0.50246526    -0.72200
O462        O  0.29729850  0.34414739  0.50231489    -0.50900
C463        C  0.26578757  0.29535708  0.50338183     0.74100
O464        O  0.11767336  0.38733960  0.05712224    -0.67500
O465        O  0.08233372  0.42694124  0.03419482    -0.54700
C466        C  0.08836006  0.40696785  0.05665011     0.72400
Zr467      Zr  0.20957566  0.43753052  0.05062791     2.77500
O468        O  0.19075621  0.42339966  0.09990070    -0.98300
O469        O  0.23038768  0.51911667  0.07275048    -0.79100
Zr470      Zr  0.15422382  0.31090380  0.49967331     2.70100
O471        O  0.13013158  0.26268140  0.04126077    -0.80400
O472        O  0.12378849  0.24304004  0.46448486    -0.99400
Zr473      Zr  0.12254008  0.42791141  0.98927673     2.21500
Zr474      Zr  0.29924988  0.42509817  0.49941714     2.11100
O475        O  0.22974798  0.37903309  0.02790297    -2.48100
O476        O  0.14154233  0.37854181  0.02173492    -0.80100
O477        O  0.28295708  0.48799789  0.02351802    -0.72300
O478        O  0.13548463  0.35959402  0.46709619    -2.33300
O479        O  0.19237253  0.48679362  0.01864331    -2.29500
O480        O  0.22679000  0.36243188  0.47182290    -0.74100
H481        H  0.30781101  0.48988666  0.45310456     0.77900
H482        H  0.10503323  0.33380493  0.45740647     0.79000
H483        H  0.23735276  0.35929565  0.04094001     0.81200
H484        H  0.18340037  0.50968897  0.02810735     0.78800
H485        H  0.18092484  0.33050799  0.39619869     0.41900
H486        H  0.08662892  0.23108752  0.46195489     0.40800
H487        H  0.13449440  0.28662144  0.05663909     0.40500
H488        H  0.18629956  0.38893514  0.10356471     0.38400
H489        H  0.26670234  0.53397983  0.07901918     0.41600
H490        H  0.31891496  0.59819207  0.03483381     0.36300
H491        H  0.31520915  0.57746515  0.44156945     0.42500
H492        H  0.25135505  0.46539117  0.38871711     0.38900
H493        H  0.22288543  0.44781287  0.10995757     0.43800
H494        H  0.26638048  0.59770588  0.03304425     0.42500
H495        H  0.22570002  0.49259421  0.40413144     0.42700
H496        H  0.13971436  0.26137338  0.44716423     0.43000
O497        O  0.43068521  0.16050898  0.42708657    -0.75900
O498        O  0.43060967  0.09686664  0.45255683    -0.54800
C499        C  0.43143003  0.11841586  0.42915843     0.77900
O500        O  0.56310941  0.35255282  0.52492488    -0.60500
O501        O  0.50815262  0.38403520  0.52443535    -0.53500
C502        C  0.55456637  0.39056958  0.52622824     0.69900
O503        O  0.56574629  0.21058313  0.01120258    -0.75000
O504        O  0.51222436  0.12624073  0.00093613    -0.55600
C505        C  0.55792793  0.16520339  0.00560131     0.75900
O506        O  0.38788552  0.27769622  0.45480277    -0.60200
O507        O  0.43585020  0.35081916  0.47698478    -0.53300
C508        C  0.41633724  0.32623429  0.45416637     0.72500
Zr509      Zr  0.42975910  0.22710249  0.45414615     2.54700
O510        O  0.50448427  0.29094532  0.42920655    -0.80700
O511        O  0.38962100  0.21937374  0.40878332    -0.94100
Zr512      Zr  0.53084806  0.26699742  0.01815238     2.64700
O513        O  0.59580043  0.30079609  0.48419596    -0.99100
O514        O  0.58550582  0.28261245  0.05895220    -0.81200
O515        O  0.48138439  0.20237282  0.48027912    -0.84500
O516        O  0.48114018  0.28899002  0.48855321    -2.19200
O517        O  0.27532548  0.21670584  0.50143010    -0.67900
O518        O  0.34214410  0.29650890  0.51397928    -0.52500
C519        C  0.29472266  0.26595132  0.50669867     0.70900
O520        O  0.37127833  0.10272301  0.06220577    -0.60800
O521        O  0.42602435  0.08224479  0.04416694    -0.52800
C522        C  0.40171476  0.08510091  0.06532116     0.72700
O523        O  0.38475436  0.24950682  0.08910960    -0.72200
O524        O  0.42816896  0.32699070  0.06830246    -0.50900
C525        C  0.40905391  0.29859275  0.08993060     0.74100
O526        O  0.27350754  0.05668705  0.49721821    -0.67500
O527        O  0.34785028  0.04930835  0.99566642    -0.54700
C528        C  0.29898763  0.03244813  0.99443060     0.72400
Zr529      Zr  0.31015468  0.15408973  0.50233921     2.77500
O530        O  0.24841480  0.12328854  0.03644602    -0.98300
O531        O  0.25352242  0.12806363  0.46165208    -0.79100
Zr532      Zr  0.40965506  0.19471139  0.06539051     2.70100
O533        O  0.36279058  0.15994102  0.10805100    -0.80400
O534        O  0.48018646  0.21485772  0.09798572    -0.99400
Zr535      Zr  0.42896246  0.12778136  0.00113382     2.21500
Zr536      Zr  0.42386194  0.29941179  0.51868990     2.11100
O537        O  0.36328181  0.22315821  0.03726949    -2.48100
O538        O  0.36563491  0.13476145  0.02882922    -0.80100
O539        O  0.37224936  0.23474804  0.48398311    -0.72300
O540        O  0.47273894  0.18816067  0.03861849    -2.33300
O541        O  0.37191500  0.14676083  0.47395811    -2.29500
O542        O  0.47246676  0.27507384  0.04743949    -0.74100
H543        H  0.50476363  0.32108330  0.47994987     0.77900
H544        H  0.49208311  0.17722364  0.05005755     0.79000
H545        H  0.33815389  0.22736185  0.04760616     0.81200
H546        H  0.35328434  0.12155238  0.45954385     0.78800
H547        H  0.61968948  0.31119187  0.05369710     0.41900
H548        H  0.49418850  0.25172537  0.10267168     0.40800
H549        H  0.32617367  0.14017781  0.10203874     0.40500
H550        H  0.21573458  0.10929843  0.02568153     0.38400
H551        H  0.26114055  0.16073336  0.45271928     0.41600
H552        H  0.36382286  0.18241913  0.40637128     0.36300
H553        H  0.52174773  0.27204871  0.42266267     0.42500
H554        H  0.58434459  0.27655732  0.46820404     0.38900
H555        H  0.24922639  0.09248693  0.04311095     0.43800
H556        H  0.41664316  0.22615566  0.39512017     0.42500
H557        H  0.59434634  0.33107149  0.47721988     0.42700
H558        H  0.46340434  0.19665221  0.11517401     0.43000
C559        C  0.40952788  0.31010265  0.16833367    -0.13900
C560        C  0.45817558  0.35358136  0.17297054     0.08200
C561        C  0.48594964  0.38210801  0.14971827    -0.13900
C562        C  0.46707749  0.36704779  0.12281293    -0.13900
C563        C  0.42019223  0.32212190  0.11800321     0.08200
C564        C  0.39099368  0.29415179  0.14103509    -0.13900
H565        H  0.38650972  0.28795552  0.18559147     0.12200
H566        H  0.52309167  0.41656830  0.15213791     0.12200
H567        H  0.49099294  0.38894561  0.10572045     0.12200
H568        H  0.35472659  0.25879970  0.13786368     0.12200
C569        C  0.49582895  0.40589279  0.39395881    -0.13900
C570        C  0.46125450  0.38216212  0.37145911     0.08200
C571        C  0.41131895  0.34238539  0.37677845    -0.13900
C572        C  0.39623256  0.32661499  0.40398910    -0.13900
C573        C  0.43068592  0.35014589  0.42652539     0.08200
C574        C  0.48077777  0.39001113  0.42125639    -0.13900
H575        H  0.53450391  0.43699099  0.39033615     0.12200
H576        H  0.38339021  0.32484722  0.36000144     0.12200
H577        H  0.35744479  0.29548287  0.40746015     0.12200
H578        H  0.50861124  0.40777786  0.43806477     0.12200
C579        C  0.70113181  0.61817910  0.17042054    -0.13900
C580        C  0.65916979  0.56918900  0.17530556     0.08200
C581        C  0.62991125  0.53877530  0.15228396    -0.13900
C582        C  0.64329164  0.55531496  0.12532870    -0.13900
C583        C  0.68718692  0.60234695  0.12026632     0.08200
C584        C  0.71547037  0.63439992  0.14301993    -0.13900
H585        H  0.72364387  0.64292234  0.18756922     0.12200
H586        H  0.59631418  0.50125658  0.15489000     0.12200
H587        H  0.62116453  0.52941584  0.10843518     0.12200
H588        H  0.75003570  0.67090596  0.13959607     0.12200
C589        C  0.58956365  0.54866761  0.39589620    -0.13900
C590        C  0.62423433  0.57002631  0.37367914     0.08200
C591        C  0.67613849  0.60368937  0.37962371    -0.13900
C592        C  0.69330623  0.61436953  0.40718501    -0.13900
C593        C  0.65941726  0.58959753  0.42933791     0.08200
C594        C  0.60699986  0.55784072  0.42343660    -0.13900
H595        H  0.54873379  0.52373311  0.39192389     0.12200
H596        H  0.70317459  0.62204454  0.36305634     0.12200
H597        H  0.73388873  0.64062150  0.41106608     0.12200
H598        H  0.57991683  0.53863893  0.43989170     0.12200
C599        C  0.57934223  0.67612780  0.14799365    -0.13900
C600        C  0.56267349  0.62358893  0.15040074     0.08200
C601        C  0.55385535  0.59446606  0.12562620    -0.13900
C602        C  0.55941006  0.61680682  0.09933601    -0.13900
C603        C  0.57401227  0.66900958  0.09704868     0.08200
C604        C  0.58511358  0.69842158  0.12185412    -0.13900
H605        H  0.58718969  0.70001519  0.16634575     0.12200
H606        H  0.54112930  0.55376957  0.12649817     0.12200
H607        H  0.55058334  0.59283559  0.08093626     0.12200
H608        H  0.59721348  0.73899997  0.12121677     0.12200
C609        C  0.58782192  0.67114203  0.35379619    -0.13900
C610        C  0.53543893  0.63791632  0.34765201     0.08200
C611        C  0.50240658  0.61137663  0.36976544    -0.13900
C612        C  0.52056354  0.61956764  0.39727194    -0.13900
C613        C  0.57240035  0.65470078  0.40347377     0.08200
C614        C  0.60606109  0.67914495  0.38134924    -0.13900
H615        H  0.61482126  0.69021250  0.33730488     0.12200
H616        H  0.46213929  0.58412746  0.36577608     0.12200
H617        H  0.49347014  0.60037081  0.41372449     0.12200
H618        H  0.64643506  0.70604243  0.38550777     0.12200
C619        C  0.41765295  0.44778796  0.12584712    -0.13900
C620        C  0.38762076  0.43442637  0.15014420     0.08200
C621        C  0.33436111  0.41297044  0.14720352    -0.13900
C622        C  0.31201355  0.40786437  0.12100705    -0.13900
C623        C  0.34224031  0.42480894  0.09686641     0.08200
C624        C  0.39521014  0.44305459  0.09947203    -0.13900
H625        H  0.45902722  0.46413503  0.12724655     0.12200
H626        H  0.31001803  0.40150234  0.16521911     0.12200
H627        H  0.27073748  0.39236542  0.11988912     0.12200
H628        H  0.41955423  0.45615035  0.08146647     0.12200
C629        C  0.35286212  0.47705826  0.36924628    -0.13900
C630        C  0.33936469  0.43980535  0.34796008     0.08200
C631        C  0.31470154  0.38770918  0.35547652    -0.13900
C632        C  0.30574259  0.37381821  0.38357519    -0.13900
C633        C  0.32355480  0.41178906  0.40472482     0.08200
C634        C  0.34697759  0.46348474  0.39716326    -0.13900
H635        H  0.37295075  0.51757287  0.36424568     0.12200
H636        H  0.30573354  0.35811219  0.33992029     0.12200
H637        H  0.28602476  0.33343478  0.38888220     0.12200
H638        H  0.35948989  0.49351196  0.41284330     0.12200
C639        C  0.90170340  0.54442269  0.11128265    -0.13900
C640        C  0.92291515  0.59672427  0.10569542     0.08200
C641        C  0.93502943  0.63149084  0.12819023    -0.13900
C642        C  0.92637716  0.61393624  0.15577920    -0.13900
C643        C  0.90397793  0.56113708  0.16120944     0.08200
C644        C  0.89120661  0.52684839  0.13834621    -0.13900
H645        H  0.89121515  0.51649486  0.09459101     0.12200
H646        H  0.95096715  0.67217764  0.12437333     0.12200
H647        H  0.93779033  0.64145147  0.17273429     0.12200
H648        H  0.87413548  0.48576823  0.14125530     0.12200
C649        C  0.96498045  0.55657462  0.38484588    -0.13900
C650        C  0.94299934  0.56614565  0.36096809     0.08200
C651        C  0.90704864  0.58230517  0.36473947    -0.13900
C652        C  0.89113564  0.58565876  0.39135730    -0.13900
C653        C  0.90966533  0.57186638  0.41510731     0.08200
C654        C  0.94832853  0.55914969  0.41163212    -0.13900
H655        H  0.99356916  0.54471902  0.38281726     0.12200
H656        H  0.89002370  0.59092656  0.34711599     0.12200
H657        H  0.86246042  0.59740619  0.39315033     0.12200
H658        H  0.96386088  0.54889651  0.42928968     0.12200
C659        C  0.90635828  0.31665969  0.15751627    -0.13900
C660        C  0.88279564  0.34615063  0.16284119     0.08200
C661        C  0.86851680  0.36615288  0.14003474    -0.13900
C662        C  0.87844609  0.35803602  0.11288129    -0.13900
C663        C  0.90125035  0.32809900  0.10752887     0.08200
C664        C  0.91493500  0.30723628  0.13007085    -0.13900
H665        H  0.91923688  0.30205825  0.17444969     0.12200
H666        H  0.85052939  0.38943013  0.14318688     0.12200
H667        H  0.86549967  0.37271202  0.09598222     0.12200
H668        H  0.93136104  0.28272814  0.12632532     0.12200
C669        C  0.92477716  0.33017603  0.36545335    -0.13900
C670        C  0.92991785  0.37851738  0.36056929     0.08200
C671        C  0.93035351  0.40838745  0.38337347    -0.13900
C672        C  0.92432349  0.38983811  0.41046659    -0.13900
C673        C  0.91831298  0.34112196  0.41537830     0.08200
C674        C  0.91936426  0.31184825  0.39258122    -0.13900
H675        H  0.92603529  0.30712450  0.34843640     0.12200
H676        H  0.93497273  0.44617109  0.38010155     0.12200
H677        H  0.92271624  0.41285032  0.42740194     0.12200
H678        H  0.91503838  0.27412089  0.39569162     0.12200
C679        C  0.02688843  0.44533879  0.11359206    -0.13900
C680        C  0.03795539  0.42486273  0.13733816     0.08200
C681        C  0.05967311  0.39337440  0.13361970    -0.13900
C682        C  0.07184852  0.38431285  0.10698860    -0.13900
C683        C  0.06446118  0.40803174  0.08344022     0.08200
C684        C  0.04050974  0.43758828  0.08702315    -0.13900
H685        H  0.00911721  0.46892146  0.11563929     0.12200
H686        H  0.06748046  0.37598513  0.15127244     0.12200
H687        H  0.08896894  0.36004690  0.10504305     0.12200
H688        H  0.03401985  0.45625221  0.06952484     0.12200
C689        C  0.07861837  0.39198317  0.34053386    -0.13900
C690        C  0.08612760  0.44105825  0.33487096     0.08200
C691        C  0.08645486  0.47178551  0.35737481    -0.13900
C692        C  0.08323480  0.45576789  0.38473044    -0.13900
C693        C  0.08044968  0.40885109  0.39049740     0.08200
C694        C  0.07607666  0.37616394  0.36809826    -0.13900
H695        H  0.07637594  0.36663925  0.32383084     0.12200
H696        H  0.09020586  0.50915475  0.35397734     0.12200
H697        H  0.08727501  0.48204528  0.40135900     0.12200
H698        H  0.07394413  0.33957113  0.37197402     0.12200
C699        C  0.08618089  0.66782257  0.13504808    -0.13900
C700        C  0.05318165  0.61476282  0.13747197     0.10000
C701        C  0.03347659  0.58517013  0.11270531    -0.13900
C702        C  0.04962496  0.60734629  0.08641810    -0.13900
C703        C  0.08532302  0.65990352  0.08424257     0.08200
C704        C  0.10142588  0.69003361  0.10892589    -0.13900
H705        H  0.10099494  0.69219114  0.15336369     0.12200
H706        H  0.00651710  0.54436482  0.11360570     0.12200
H707        H  0.03595308  0.58309439  0.06801516     0.12200
H708        H  0.12776650  0.73109619  0.10821273     0.12200
C709        C  0.08406459  0.67912655  0.34104734    -0.13900
C710        C  0.10657066  0.64830002  0.33636659     0.08200
C711        C  0.11895775  0.62809129  0.35976881    -0.13900
C712        C  0.10718952  0.63617687  0.38667031    -0.13900
C713        C  0.08460217  0.66671240  0.39141129     0.08200
C714        C  0.07385187  0.68874565  0.36827178    -0.13900
H715        H  0.07234069  0.69389080  0.32369003     0.12200
H716        H  0.13604647  0.60388588  0.35718993     0.12200
H717        H  0.11701653  0.61942585  0.40386208     0.12200
H718        H  0.05691719  0.71299515  0.37125407     0.12200
C719        C  0.32810713  0.92871380  0.12172235    -0.13900
C720        C  0.38080806  0.94854086  0.12640515     0.08200
C721        C  0.41351538  0.96128036  0.10330650    -0.13900
C722        C  0.39359807  0.95062749  0.07625505    -0.13900
C723        C  0.34068814  0.92905279  0.07160787     0.08200
C724        C  0.30852029  0.92044810  0.09458774    -0.13900
H725        H  0.30223969  0.92006932  0.13893207     0.12200
H726        H  0.45479160  0.97872371  0.10610384     0.12200
H727        H  0.41936758  0.95806319  0.05912809     0.12200
H728        H  0.26759075  0.90561000  0.09167857     0.12200
C729        C  0.28554869  0.90926058  0.35589702    -0.13900
C730        C  0.30472021  0.89151924  0.37744576     0.08200
C731        C  0.32972905  0.86419763  0.37060457    -0.13900
C732        C  0.33783834  0.85698479  0.34293773    -0.13900
C733        C  0.32429995  0.87988957  0.32138902     0.08200
C734        C  0.29617615  0.90444097  0.32807627    -0.13900
H735        H  0.26378569  0.92827752  0.36069928     0.12200
H736        H  0.34236800  0.84768349  0.38669473     0.12200
H737        H  0.36002021  0.83825150  0.33848858     0.12200
H738        H  0.28627729  0.92355818  0.31217421     0.12200
C739        C  0.59853032  0.93782440  0.12042132    -0.13900
C740        C  0.54955676  0.92917650  0.12704317     0.08200
C741        C  0.51410734  0.92096593  0.10543439    -0.13900
C742        C  0.52702179  0.92050632  0.07764191    -0.13900
C743        C  0.57570763  0.92781765  0.07107255     0.08200
C744        C  0.61143494  0.93718566  0.09272167    -0.13900
H745        H  0.62725475  0.94659293  0.13656572     0.12200
H746        H  0.47624109  0.91472372  0.11024868     0.12200
H747        H  0.49832067  0.91215468  0.06153061     0.12200
H748        H  0.64931579  0.94302287  0.08814994     0.12200
C749        C  0.57577129  0.88323594  0.32899922    -0.13900
C750        C  0.52734720  0.87855558  0.32391884     0.08200
C751        C  0.49927497  0.88008530  0.34699746    -0.13900
C752        C  0.51824933  0.88484227  0.37418976    -0.13900
C753        C  0.56572541  0.88764428  0.37931809     0.08200
C754        C  0.59454065  0.88744133  0.35632073    -0.13900
H755        H  0.59916904  0.88375908  0.31191814     0.12200
H756        H  0.46225230  0.87778112  0.34410019     0.12200
H757        H  0.49462488  0.88399487  0.39124979     0.12200
H758        H  0.63129132  0.88926166  0.35950487     0.12200
C759        C  0.61784904  0.07704789  0.12809347    -0.13900
C760        C  0.64886237  0.07795610  0.15074919     0.08200
C761        C  0.69252972  0.07386848  0.14501900    -0.13900
C762        C  0.70624257  0.07231726  0.11727021    -0.13900
C763        C  0.67611501  0.07411362  0.09488150     0.08200
C764        C  0.63086629  0.07454979  0.10080243    -0.13900
H765        H  0.58291731  0.07866075  0.13126570     0.12200
H766        H  0.71660672  0.07334236  0.16177855     0.12200
H767        H  0.74141442  0.07158008  0.11332443     0.12200
H768        H  0.60690318  0.07618090  0.08429760     0.12200
C769        C  0.58631346  0.02343362  0.37291599    -0.13900
C770        C  0.61787690  0.04203011  0.34926409     0.08200
C771        C  0.67089103  0.07356100  0.35309196    -0.13900
C772        C  0.69149251  0.08894531  0.37970506    -0.13900
C773        C  0.65948136  0.07475558  0.40315704     0.08200
C774        C  0.60694382  0.03985612  0.39967539    -0.13900
H775        H  0.54508440  0.99833601  0.37072371     0.12200
H776        H  0.69627825  0.08763444  0.33552230     0.12200
H777        H  0.73266651  0.11459718  0.38174108     0.12200
H778        H  0.58152875  0.02794307  0.41725365     0.12200
C779        C  0.48888016  0.11241847  0.12735171    -0.13900
C780        C  0.45498937  0.09916577  0.14995379     0.08200
C781        C  0.40208407  0.07734953  0.14408293    -0.13900
C782        C  0.38398075  0.06957965  0.11638058    -0.13900
C783        C  0.41823557  0.08230688  0.09405509     0.08200
C784        C  0.47073265  0.10314400  0.09997947    -0.13900
H785        H  0.52997859  0.12904524  0.13079642     0.12200
H786        H  0.37476465  0.06516038  0.16078303     0.12200
H787        H  0.34317932  0.05396270  0.11233655     0.12200
H788        H  0.49826508  0.11469347  0.08338981     0.12200
C789        C  0.42647155  0.11725732  0.37727927    -0.13900
C790        C  0.43421108  0.09619863  0.40189222     0.08200
C791        C  0.44830186  0.05823528  0.39943465    -0.13900
C792        C  0.45643197  0.04347703  0.37312339    -0.13900
C793        C  0.45094911  0.06653737  0.34870586     0.08200
C794        C  0.43509269  0.10299805  0.35119718    -0.13900
H795        H  0.41467594  0.14600857  0.37801302     0.12200
H796        H  0.45452362  0.04112695  0.41772587     0.12200
H797        H  0.46809057  0.01462457  0.37198653     0.12200
H798        H  0.42963785  0.12086635  0.33299671     0.12200
O799        O  0.62160997  0.06207485  0.80024035    -0.75900
O800        O  0.54789683  0.00095488  0.81991192    -0.54800
C801        C  0.59504536  0.03583398  0.82134712     0.77900
O802        O  0.44997328  0.09229122  0.70029503    -0.60500
O803        O  0.51783717  0.10105296  0.67793760    -0.53500
C804        C  0.47557509  0.10064789  0.67761161     0.69900
O805        O  0.46388918  0.08167217  0.79901822    -0.75000
O806        O  0.46899495  0.01707027  0.82060151    -0.55600
C807        C  0.46221753  0.05581541  0.82095635     0.75900
O808        O  0.64681094  0.06956472  0.70209727    -0.60200
O809        O  0.59693819  0.09266942  0.68019110    -0.53300
C810        C  0.63250968  0.08197793  0.67939132     0.72500
Zr811      Zr  0.60798530  0.06590592  0.74898278     2.54700
O812        O  0.65535184  0.15982385  0.75007525    -0.80700
O813        O  0.69470115  0.08077928  0.75906589    -0.94100
Zr814      Zr  0.47860146  0.08068793  0.74790741     2.64700
O815        O  0.53584237  0.17385340  0.74788576    -0.99100
O816        O  0.41550680  0.10749893  0.75777954    -0.81200
O817        O  0.53392393  0.05740913  0.76872354    -0.84500
O818        O  0.55352236  0.09091467  0.72571806    -2.19200
O819        O  0.53964674  0.91692198  0.67676966    -0.67900
O820        O  0.53398184  0.98206100  0.65577688    -0.52500
C821        C  0.54089619  0.94337281  0.65525134     0.70900
O822        O  0.34595049  0.90208925  0.77157597    -0.60800
O823        O  0.40732505  0.92155917  0.80498454    -0.52800
C824        C  0.36073928  0.90268287  0.79708039     0.72700
O825        O  0.37848244  0.93771968  0.67525031    -0.72200
O826        O  0.45356718  0.99525240  0.65496854    -0.50900
C827        C  0.40558578  0.96235564  0.65388297     0.74100
O828        O  0.53451721  0.88632233  0.77339173    -0.67500
O829        O  0.47184179  0.89142729  0.79410932    -0.54700
C830        C  0.51013010  0.88449949  0.79559831     0.72400
Zr831      Zr  0.52157543  0.91672131  0.72734050     2.77500
O832        O  0.46778063  0.82412785  0.71938246    -0.98300
O833        O  0.59616488  0.90496995  0.72275621    -0.79100
Zr834      Zr  0.39257973  0.93159099  0.72626636     2.70100
O835        O  0.34174465  0.83922654  0.71682639    -0.80400
O836        O  0.31334874  0.93469617  0.71877618    -0.99400
Zr837      Zr  0.48588332  0.97513794  0.78386290     2.21500
Zr838      Zr  0.51489745  0.02403001  0.69167292     2.11100
O839        O  0.46353005  0.93523244  0.70237945    -2.48100
O840        O  0.45250859  0.91672233  0.74850276    -0.80100
O841        O  0.56631686  0.00211216  0.71627051    -0.72300
O842        O  0.42625075  0.99498519  0.76226905    -2.33300
O843        O  0.56022179  0.97988781  0.76359746    -2.29500
O844        O  0.44608588  0.01593506  0.71541140    -0.74100
H845        H  0.57324168  0.12547913  0.71883247     0.77900
H846        H  0.40030136  0.99393271  0.77440131     0.79000
H847        H  0.45114082  0.91404633  0.68586880     0.81200
H848        H  0.58224487  0.97432934  0.77612125     0.78800
H849        H  0.38198338  0.07836957  0.75142863     0.41900
H850        H  0.28597133  0.89821578  0.71668003     0.40800
H851        H  0.35690740  0.82355443  0.72899040     0.40500
H852        H  0.44551774  0.81123774  0.73580679     0.38400
H853        H  0.62345644  0.93272690  0.73436778     0.41600
H854        H  0.68988090  0.05099417  0.77014116     0.36300
H855        H  0.63707496  0.16959092  0.76366831     0.42500
H856        H  0.51561275  0.18753313  0.73851866     0.38900
H857        H  0.44415544  0.82061337  0.70392495     0.43800
H858        H  0.71030011  0.11033142  0.77223553     0.42500
H859        H  0.53819772  0.18476997  0.76750074     0.42700
H860        H  0.30639867  0.94581262  0.73680183     0.43000
O861        O  0.11636027  0.46582155  0.78435183    -0.75900
O862        O  0.11462453  0.52906927  0.80746105    -0.54800
C863        C  0.12113509  0.49055898  0.80720272     0.77900
O864        O  0.06664743  0.62317793  0.68789097    -0.60500
O865        O  0.00648357  0.54863824  0.66690196    -0.53500
C866        C  0.04103966  0.59603064  0.66617413     0.69900
O867        O  0.09522318  0.65736209  0.78539756    -0.75000
O868        O  0.10684418  0.59896281  0.80677647    -0.55600
C869        C  0.10329568  0.63919137  0.80793684     0.75900
O870        O  0.08097754  0.45819732  0.68792790    -0.60200
O871        O  0.01749884  0.46749857  0.66712425    -0.53300
C872        C  0.05430690  0.45768981  0.66635798     0.72500
Zr873      Zr  0.08646996  0.48135682  0.73846524     2.54700
O874        O  0.17736783  0.54472154  0.73294167    -0.80700
O875        O  0.11436736  0.41906394  0.72789930    -0.94100
Zr876      Zr  0.07312725  0.61122891  0.73908330     2.64700
O877        O  0.16655513  0.65817977  0.73393068    -0.99100
O878        O  0.07859225  0.69421561  0.73129671    -0.81200
O879        O  0.08731970  0.55041372  0.76033413    -0.84500
O880        O  0.06799909  0.53960346  0.71419481    -2.19200
O881        O  0.92889536  0.35574971  0.71356491    -0.67900
O882        O  0.90746444  0.40719131  0.69222554    -0.52500
C883        C  0.91687087  0.37083137  0.69112142     0.70900
O884        O  0.92890502  0.54415539  0.81153660    -0.60800
O885        O  0.99708606  0.54357998  0.83263457    -0.52800
C886        C  0.95730513  0.54867044  0.83321038     0.72700
O887        O  0.91216253  0.55392968  0.71270160    -0.72200
O888        O  0.90147539  0.48573412  0.68913365    -0.50900
C889        C  0.90223002  0.52810698  0.68963546     0.74100
O890        O  0.94437455  0.38202348  0.81106625    -0.67500
O891        O  0.00424060  0.45643175  0.83234690    -0.54700
C892        C  0.97008599  0.40871125  0.83280755     0.72400
Zr893      Zr  0.93759520  0.39663789  0.76034135     2.77500
O894        O  0.84402198  0.35476095  0.76358788    -0.98300
O895        O  0.92028046  0.30901150  0.76836426    -0.79100
Zr896      Zr  0.92461394  0.52604531  0.76023398     2.70100
O897        O  0.83158982  0.46802017  0.76076935    -0.80400
O898        O  0.89211004  0.58502903  0.76981118    -0.99400
Zr899      Zr  0.03228239  0.51835116  0.79635035     2.21500
Zr900      Zr  0.97843423  0.48870335  0.70347764     2.11100
O901        O  0.91242518  0.45079010  0.73716220    -2.48100
O902        O  0.94906309  0.47160292  0.78065232    -0.80100
O903        O  0.00015652  0.43689252  0.72765133    -0.72300
O904        O  0.01067143  0.57717106  0.77508863    -2.33300
O905        O  0.02470356  0.44307036  0.77467499    -2.29500
O906        O  0.98797586  0.55845316  0.72775160    -0.74100
H907        H  0.08857364  0.55111743  0.69773718     0.77900
H908        H  0.01018051  0.60235394  0.78739097     0.79000
H909        H  0.87727574  0.43150169  0.73034264     0.81200
H910        H  0.02963073  0.42037611  0.78682448     0.78800
H911        H  0.04263215  0.68718317  0.73223777     0.41900
H912        H  0.87057759  0.58222578  0.75343333     0.40800
H913        H  0.82289725  0.46222893  0.78064204     0.40500
H914        H  0.83084645  0.32358345  0.75167145     0.38400
H915        H  0.95138244  0.30858253  0.76194817     0.41600
H916        H  0.11656754  0.40443763  0.74587366     0.36300
H917        H  0.19426650  0.54372500  0.75050286     0.42500
H918        H  0.17199532  0.67279312  0.71509022     0.38900
H919        H  0.83642739  0.34159088  0.78273616     0.43800
H920        H  0.15066818  0.44016630  0.72215800     0.42500
H921        H  0.17890329  0.68846214  0.74646921     0.42700
H922        H  0.86693104  0.56878736  0.78483392     0.43000
O923        O  0.55337468  0.64639553  0.79809610    -0.75900
O924        O  0.48602934  0.58202831  0.81764897    -0.54800
C925        C  0.52669651  0.62521774  0.81983415     0.77900
O926        O  0.38359796  0.44689500  0.70036042    -0.60500
O927        O  0.45636688  0.45869951  0.67905986    -0.53500
C928        C  0.40917494  0.44737310  0.67858176     0.69900
O929        O  0.35674378  0.45702722  0.79738139    -0.75000
O930        O  0.41973541  0.48885253  0.83068990    -0.55600
C931        C  0.37282537  0.46768528  0.82306813     0.75900
O932        O  0.55234527  0.61789147  0.70024000    -0.60200
O933        O  0.54820446  0.54833318  0.67834908    -0.53300
C934        C  0.55444321  0.59387961  0.67811118     0.72500
Zr935      Zr  0.53806353  0.60347896  0.75148734     2.54700
O936        O  0.49128472  0.65014532  0.74505430    -0.80700
O937        O  0.61670904  0.68610972  0.74610465    -0.94100
Zr938      Zr  0.40073119  0.46815428  0.75119606     2.64700
O939        O  0.35830984  0.51753957  0.74053015    -0.99100
O940        O  0.31649495  0.39022558  0.74822828    -0.81200
O941        O  0.46631962  0.53945072  0.77307755    -0.84500
O942        O  0.47483300  0.52950938  0.72670261    -2.19200
O943        O  0.65422754  0.55671825  0.72732367    -0.67900
O944        O  0.59778384  0.48701917  0.70431182    -0.52500
C945        C  0.63824092  0.53016605  0.70460524     0.70900
O946        O  0.45466039  0.37404264  0.82161940    -0.60800
O947        O  0.47983376  0.45046275  0.84370921    -0.52800
C948        C  0.46223232  0.40203106  0.84363968     0.72700
O949        O  0.44461210  0.35196674  0.72373697    -0.72200
O950        O  0.51439006  0.40696436  0.70143071    -0.50900
C951        C  0.47005911  0.36780231  0.70100288     0.74100
O952        O  0.62892705  0.54884679  0.82440482    -0.67500
O953        O  0.55775104  0.54495452  0.84306573    -0.54700
C954        C  0.60351206  0.55306018  0.84497701     0.72400
Zr955      Zr  0.61263161  0.52787095  0.77341239     2.77500
O956        O  0.65704328  0.47819371  0.77643587    -0.98300
O957        O  0.70053943  0.59639585  0.78354619    -0.79100
Zr958      Zr  0.47532106  0.39087807  0.77141577     2.70100
O959        O  0.52468163  0.34637206  0.77426047    -0.80400
O960        O  0.40638251  0.30248148  0.77854935    -0.99400
Zr961      Zr  0.49545725  0.50932933  0.80766489     2.21500
Zr962      Zr  0.52043437  0.48600402  0.71470826     2.11100
O963        O  0.55234429  0.45111415  0.74920541    -2.48100
O964        O  0.53615955  0.46706001  0.79263630    -0.80100
O965        O  0.57657572  0.55622542  0.74049661    -0.72300
O966        O  0.43076879  0.43321104  0.78585735    -2.33300
O967        O  0.57249464  0.57436433  0.78758891    -2.29500
O968        O  0.44331836  0.42337584  0.73616731    -0.74100
H969        H  0.46372292  0.53997395  0.71033901     0.77900
H970        H  0.40362990  0.41045808  0.79789517     0.79000
H971        H  0.56926651  0.43285859  0.74263059     0.81200
H972        H  0.59645409  0.60146284  0.79991340     0.78800
H973        H  0.31900739  0.36602768  0.76120755     0.41900
H974        H  0.37732422  0.29871078  0.76679980     0.40800
H975        H  0.52157306  0.33180900  0.75539562     0.40500
H976        H  0.62999623  0.44230441  0.78002652     0.38400
H977        H  0.69725937  0.62621298  0.78971245     0.41600
H978        H  0.63674287  0.67994380  0.73192287     0.36300
H979        H  0.45456942  0.62418706  0.74753389     0.42500
H980        H  0.37640110  0.53757026  0.72400205     0.38900
H981        H  0.66827867  0.47737751  0.75730063     0.43800
H982        H  0.63649688  0.69138794  0.76357815     0.42500
H983        H  0.32384727  0.49146045  0.73335207     0.42700
H984        H  0.41803917  0.28057651  0.76926726     0.43000
O985        O  0.79001467  0.43470688  0.52376094    -0.75900
O986        O  0.87396994  0.48726699  0.51343550    -0.54800
C987        C  0.83487578  0.44181641  0.51788054     0.77900
O988        O  0.73313314  0.61184738  0.95793560    -0.60500
O989        O  0.65765068  0.57327383  0.97844825    -0.53500
C990        C  0.68444937  0.59197556  0.95649418     0.69900
O991        O  0.84167616  0.56121918  0.93856944    -0.75000
O992        O  0.90848832  0.57027663  0.96540990    -0.55600
C993        C  0.88627565  0.56616700  0.94156127     0.75900
O994        O  0.64850014  0.43958054  0.03198685    -0.60200
O995        O  0.61671560  0.49359823  0.02582993    -0.53300
C996        C  0.61021569  0.44746399  0.02907661     0.72500
Zr997      Zr  0.73604786  0.47253640  0.53088517     2.54700
O998        O  0.69569360  0.38840925  0.01536354    -0.80700
O999        O  0.72598115  0.43568737  0.57680380    -0.94100
Zr1000     Zr  0.77216889  0.55882748  0.96320042     2.64700
O1001       O  0.70688734  0.47750268  0.94242181    -0.99100
O1002       O  0.77232490  0.57467049  0.91381236    -0.81200
O1003       O  0.79812163  0.51376224  0.99337955    -0.84500
O1004       O  0.71097923  0.51445323  0.99781000    -2.19200
O1005       O  0.75039127  0.62808373  0.59262090    -0.67900
O1006       O  0.67286884  0.57670840  0.57227892    -0.52500
C1007       C  0.70175847  0.59925198  0.59380969     0.70900
O1008       O  0.94224395  0.72588080  0.00094511    -0.60800
O1009       O  0.95175600  0.65274824  0.50716745    -0.52800
C1010       C  0.96790585  0.70081504  0.50300694     0.72700
O1011       O  0.78273162  0.72393743  0.00270800    -0.72200
O1012       O  0.70336642  0.65898070  0.01586089    -0.50900
C1013       C  0.73358112  0.70534112  0.00760201     0.74100
O1014       O  0.89968225  0.63469993  0.57365518    -0.67500
O1015       O  0.92057634  0.57893260  0.55708520    -0.54700
C1016       C  0.91625719  0.60358662  0.57782043     0.72400
Zr1017     Zr  0.80785100  0.60055230  0.57468320     2.77500
O1018       O  0.84673492  0.65846961  0.61447903    -0.98300
O1019       O  0.79018054  0.53973098  0.61196047    -0.79100
Zr1020     Zr  0.84565994  0.68918371  0.00591629     2.70100
O1021       O  0.87680199  0.75597361  0.54149107    -0.80400
O1022       O  0.86417599  0.73402827  0.96190938    -0.99400
Zr1023     Zr  0.87436393  0.57177863  0.51342454     2.21500
Zr1024     Zr  0.70168619  0.57847740  0.02291809     2.11100
O1025       O  0.77813142  0.64131411  0.54296319    -2.48100
O1026       O  0.86727802  0.63890581  0.53818370    -0.80100
O1027       O  0.72703871  0.53496861  0.55638694    -0.72300
O1028       O  0.85287934  0.62244505  0.98182048    -2.33300
O1029       O  0.81501902  0.53378385  0.55121882    -2.29500
O1030       O  0.76593242  0.62232707  0.98857497    -0.74100
H1031       H  0.67897006  0.48951001  0.98900380     0.77900
H1032       H  0.87769406  0.63931731  0.96740384     0.79000
H1033       H  0.77382602  0.66818172  0.55141721     0.81200
H1034       H  0.82589400  0.51598927  0.56387107     0.78800
H1035       H  0.79855303  0.61149162  0.91195167     0.41900
H1036       H  0.88768662  0.77062182  0.96691946     0.40800
H1037       H  0.87895804  0.74041462  0.55915014     0.40500
H1038       H  0.84469454  0.68963298  0.60997688     0.38400
H1039       H  0.76402941  0.54201204  0.62332559     0.41600
H1040       H  0.70438989  0.39808539  0.57367669     0.36300
H1041       H  0.70005991  0.39103588  0.99502330     0.42500
H1042       H  0.68989802  0.48714253  0.92779703     0.38900
H1043       H  0.82238383  0.64232970  0.62985147     0.43800
H1044       H  0.70320856  0.44559410  0.58654392     0.42500
H1045       H  0.72677845  0.46456628  0.93222561     0.42700
H1046       H  0.88622434  0.72342694  0.95197213     0.43000
O1047       O  0.64235871  0.20510434  0.50961363    -0.75900
O1048       O  0.61120196  0.12009552  0.50143768    -0.54800
C1049       C  0.60458174  0.15937636  0.50562314     0.77900
O1050       O  0.88140328  0.26703837  0.94019961    -0.60500
O1051       O  0.91559315  0.34171239  0.96356044    -0.53500
C1052       C  0.91001511  0.31584234  0.94097599     0.69900
O1053       O  0.72364977  0.14915039  0.92566634    -0.75000
O1054       O  0.66350309  0.08954865  0.95397084    -0.55600
C1055       C  0.68284094  0.10623965  0.92980632     0.75900
O1056       O  0.79229856  0.35770158  0.01497141    -0.60200
O1057       O  0.87825306  0.38842891  0.01147398    -0.53300
C1058       C  0.83880085  0.39533989  0.01426704     0.72500
Zr1059     Zr  0.73378848  0.26096817  0.51282303     2.54700
O1060       O  0.70074796  0.30396195  0.98095285    -0.80700
O1061       O  0.70672527  0.28552969  0.55487067    -0.94100
Zr1062     Zr  0.79022496  0.22388522  0.94869104     2.64700
O1063       O  0.77076668  0.28177021  0.92253780    -0.99100
O1064       O  0.80620919  0.21330170  0.90042441    -0.81200
O1065       O  0.71795220  0.20218009  0.97673459    -0.84500
O1066       O  0.80646003  0.29083233  0.98056693    -2.19200
O1067       O  0.87362767  0.25121198  0.58088930    -0.67900
O1068       O  0.90680349  0.32678075  0.55795204    -0.52500
C1069       C  0.90153504  0.30002719  0.57993152     0.70900
O1070       O  0.78289624  0.05946992  0.99456215    -0.60800
O1071       O  0.69827728  0.04247601  0.49536096    -0.52800
C1072       C  0.73009909  0.02578297  0.49243864     0.72700
O1073       O  0.94188520  0.21998043  0.99591602    -0.72200
O1074       O  0.95641426  0.30091673  0.00721746    -0.50900
C1075       C  0.97222484  0.26950139  0.00041450     0.74100
O1076       O  0.74158109  0.10247431  0.56262953    -0.67500
O1077       O  0.66387710  0.07850266  0.54522919    -0.54700
C1078       C  0.69321324  0.08145586  0.56581506     0.72400
Zr1079     Zr  0.78985477  0.19490388  0.56094419     2.77500
O1080       O  0.80359550  0.16762306  0.60635805    -0.98300
O1081       O  0.73966534  0.21546258  0.59262497    -0.79100
Zr1082     Zr  0.84461615  0.15703225  0.99804496     2.70100
O1083       O  0.87444970  0.11932355  0.53264530    -0.80400
O1084       O  0.87120417  0.12987763  0.95674692    -0.99400
Zr1085     Zr  0.69623984  0.12099571  0.50025637     2.21500
Zr1086     Zr  0.87774595  0.30345369  0.00886812     2.11100
O1087       O  0.86021144  0.22039796  0.53061065    -2.48100
O1088       O  0.77034871  0.13127689  0.52625219    -0.80100
O1089       O  0.80434395  0.27318139  0.54087058    -0.72300
O1090       O  0.77208039  0.14675489  0.97144082    -2.33300
O1091       O  0.71627091  0.18472736  0.53586265    -2.29500
O1092       O  0.85978170  0.23466119  0.97663514    -0.74100
H1093       H  0.81430630  0.32213105  0.97108921     0.77900
H1094       H  0.76446601  0.11942195  0.95825617     0.79000
H1095       H  0.89103633  0.22555347  0.54003461     0.81200
H1096       H  0.68733737  0.17424715  0.54797582     0.78800
H1097       H  0.81829126  0.18794372  0.90086105     0.41900
H1098       H  0.83865576  0.10373076  0.94769004     0.40800
H1099       H  0.85924184  0.12301655  0.55003255     0.40500
H1100       H  0.83475545  0.16427362  0.60467127     0.38400
H1101       H  0.76563291  0.24350263  0.60463139     0.41600
H1102       H  0.69887799  0.31248228  0.54887518     0.36300
H1103       H  0.67957207  0.27661964  0.96720743     0.42500
H1104       H  0.74816282  0.28854120  0.93454673     0.38900
H1105       H  0.81380534  0.19707479  0.61925697     0.43800
H1106       H  0.73868641  0.30440862  0.56621201     0.42500
H1107       H  0.80361462  0.31487060  0.92200477     0.42700
H1108       H  0.88442382  0.15991974  0.94435865     0.43000
O1109       O  0.35028045  0.78821244  0.46724028    -0.75900
O1110       O  0.38162300  0.87371341  0.47454514    -0.54800
C1111       C  0.38827112  0.83418609  0.47085472     0.77900
O1112       O  0.09789460  0.73788112  0.92643024    -0.60500
O1113       O  0.07852933  0.66139497  0.94186559    -0.53500
C1114       C  0.08200161  0.69058758  0.92156859     0.69900
O1115       O  0.24625421  0.87932183  0.90909701    -0.75000
O1116       O  0.32385433  0.90097032  0.92740422    -0.55600
C1117       C  0.29400307  0.89558396  0.90648448     0.75900
O1118       O  0.20511983  0.64558333  0.97507006    -0.60200
O1119       O  0.12153652  0.61508038  0.98599358    -0.53300
C1120       C  0.16024882  0.60821164  0.98108253     0.72500
Zr1121     Zr  0.25781303  0.73326142  0.46925671     2.54700
O1122       O  0.27705529  0.71249075  0.92426342    -0.80700
O1123       O  0.29867915  0.68860967  0.49006415    -0.94100
Zr1124     Zr  0.18962460  0.79428129  0.92583538     2.64700
O1125       O  0.20741545  0.74991455  0.88884027    -0.99100
O1126       O  0.15618274  0.81632917  0.88506640    -0.81200
O1127       O  0.27004885  0.80834520  0.94413671    -0.84500
O1128       O  0.18279384  0.72054572  0.94877879    -2.19200
O1129       O  0.15386643  0.72098184  0.56070104    -0.67900
O1130       O  0.08912281  0.66117372  0.53341266    -0.52500
C1131       C  0.10974680  0.68083493  0.55741581     0.70900
O1132       O  0.22031204  0.94367255  0.99558456    -0.60800
O1133       O  0.29450829  0.95308942  0.48092618    -0.52800
C1134       C  0.26430969  0.96896384  0.48996945     0.72700
O1135       O  0.05952236  0.78481613  0.99775853    -0.72200
O1136       O  0.04577826  0.70296887  0.99197542    -0.50900
C1137       C  0.02958987  0.73473543  0.99658880     0.74100
O1138       O  0.26538799  0.87699337  0.54410520    -0.67500
O1139       O  0.33930359  0.91444815  0.52139502    -0.54700
C1140       C  0.31401946  0.90711912  0.54403492     0.72400
Zr1141     Zr  0.22624414  0.78531506  0.53646703     2.77500
O1142       O  0.23780616  0.80122193  0.58639781    -0.98300
O1143       O  0.29011241  0.76473391  0.55473428    -0.79100
Zr1144     Zr  0.15642352  0.84602772  0.99266656     2.70100
O1145       O  0.13416531  0.86833299  0.53702283    -0.80400
O1146       O  0.12067336  0.88192030  0.95993266    -0.99400
Zr1147     Zr  0.29672085  0.87411505  0.47643067     2.21500
Zr1148     Zr  0.12300440  0.69975261  0.98629902     2.11100
O1149       O  0.14536638  0.76764036  0.51721759    -2.48100
O1150       O  0.23252367  0.85465773  0.51092488    -0.80100
O1151       O  0.19991989  0.71368676  0.50640094    -0.72300
O1152       O  0.21910428  0.86446119  0.95799168    -2.33300
O1153       O  0.28758746  0.80189870  0.50193021    -2.29500
O1154       O  0.12988124  0.77399032  0.96214394    -0.74100
H1155       H  0.17221483  0.69211615  0.93587325     0.77900
H1156       H  0.22309075  0.89565650  0.95000282     0.79000
H1157       H  0.11994981  0.76065070  0.53122381     0.81200
H1158       H  0.31976474  0.80949143  0.51070365     0.78800
H1159       H  0.13491885  0.83030744  0.89257723     0.41900
H1160       H  0.10142812  0.85392384  0.94617589     0.40800
H1161       H  0.16790661  0.88634314  0.54686976     0.40500
H1162       H  0.20938321  0.80709920  0.59194764     0.38400
H1163       H  0.27347252  0.72683480  0.55281741     0.41600
H1164       H  0.31588780  0.70903450  0.50700453     0.36300
H1165       H  0.28981127  0.68836036  0.92827745     0.42500
H1166       H  0.19349779  0.75676141  0.87168888     0.38900
H1167       H  0.22967768  0.76808433  0.59494466     0.43800
H1168       H  0.32701306  0.69441535  0.47756016     0.42500
H1169       H  0.24522057  0.76980984  0.88674933     0.42700
H1170       H  0.09375379  0.88447760  0.97040702     0.43000
O1171       O  0.61074097  0.86079962  0.90891496    -0.75900
O1172       O  0.56551144  0.89318968  0.92937885    -0.54800
C1173       C  0.58319379  0.88225837  0.90754616     0.77900
O1174       O  0.43565270  0.64667722  0.98844436    -0.60500
O1175       O  0.48930293  0.61592955  0.99873057    -0.53500
C1176       C  0.44360407  0.60942931  0.99402527     0.69900
O1177       O  0.43022528  0.78709725  0.47499814    -0.75000
O1178       O  0.48544822  0.87320525  0.47477052    -0.55600
C1179       C  0.43895429  0.83356461  0.47337552     0.75900
O1180       O  0.62745653  0.72857842  0.93669732    -0.60200
O1181       O  0.57365302  0.65398466  0.95488358    -0.53300
C1182       C  0.59725341  0.68054815  0.93360643     0.72500
Zr1183     Zr  0.58869490  0.78190859  0.93250513     2.54700
O1184       O  0.51789863  0.73017249  0.90034075    -0.80700
O1185       O  0.63190437  0.78749694  0.88900517    -0.94100
Zr1186     Zr  0.46711367  0.73270763  0.48295245     2.64700
O1187       O  0.40890971  0.69991058  0.94553660    -0.99100
O1188       O  0.40251001  0.71065145  0.51834026    -0.81200
O1189       O  0.52731282  0.80063849  0.95203042    -0.84500
O1190       O  0.52728861  0.71443241  0.96085889    -2.19200
O1191       O  0.72413089  0.78364759  0.99997144    -0.67900
O1192       O  0.65484151  0.70210570  0.00241365    -0.52500
C1193       C  0.70375930  0.73375830  0.00280029     0.70900
O1194       O  0.61070290  0.88761881  0.54266075    -0.60800
O1195       O  0.56400778  0.91554559  0.52140431    -0.52800
C1196       C  0.58472372  0.91059078  0.54375331     0.72700
O1197       O  0.56882625  0.72912825  0.57131323    -0.72200
O1198       O  0.56595652  0.66409289  0.54544033    -0.50900
C1199       C  0.56730885  0.68575226  0.56911344     0.74100
O1200       O  0.72284886  0.94183204  0.99451928    -0.67500
O1201       O  0.65330675  0.95100524  0.48109457    -0.54700
C1202       C  0.70076385  0.96735543  0.48845558     0.72400
Zr1203     Zr  0.68763296  0.84467694  0.99406418     2.77500
O1204       O  0.73303393  0.87035349  0.53748901    -0.98300
O1205       O  0.75157782  0.87104049  0.95782392    -0.79100
Zr1206     Zr  0.56587527  0.79500369  0.54424405     2.70100
O1207       O  0.60335043  0.82508132  0.59028881    -0.80400
O1208       O  0.49036476  0.78198134  0.56954098    -0.99400
Zr1209     Zr  0.57006922  0.87269142  0.47919294     2.21500
Zr1210     Zr  0.57351031  0.69945657  0.99760979     2.11100
O1211       O  0.62261426  0.77130151  0.52353895    -2.48100
O1212       O  0.62163875  0.85870854  0.51337828    -0.80100
O1213       O  0.63483874  0.76773243  0.96843055    -0.72300
O1214       O  0.51421979  0.80700514  0.51061597    -2.33300
O1215       O  0.63757654  0.85860588  0.95931029    -2.29500
O1216       O  0.51304396  0.71838316  0.51872409    -0.74100
H1217       H  0.50690656  0.68362017  0.94981083     0.77900
H1218       H  0.49136069  0.81643066  0.51957491     0.79000
H1219       H  0.64204798  0.76502868  0.53757989     0.81200
H1220       H  0.66212308  0.88721104  0.94847041     0.78800
H1221       H  0.41222771  0.69407292  0.53308287     0.41900
H1222       H  0.47794362  0.74846912  0.57876264     0.40800
H1223       H  0.63912873  0.83174663  0.58876597     0.40500
H1224       H  0.76889194  0.89297706  0.53147593     0.38400
H1225       H  0.73968346  0.83986534  0.94603980     0.41600
H1226       H  0.66483777  0.82051979  0.89010083     0.36300
H1227       H  0.51632650  0.75554494  0.88788986     0.42500
H1228       H  0.42285772  0.72590084  0.93072109     0.38900
H1229       H  0.72259279  0.89413157  0.54563755     0.43800
H1230       H  0.61144123  0.79253541  0.87436771     0.42500
H1231       H  0.41266599  0.67093648  0.93837225     0.42700
H1232       H  0.50423282  0.80765201  0.58486547     0.43000
O1233       O  0.20507194  0.56293766  0.48467993    -0.75900
O1234       O  0.11894305  0.50763380  0.48555885    -0.54800
C1235       C  0.15851170  0.55395793  0.48399799     0.77900
O1236       O  0.26448749  0.37396614  0.93761561    -0.60500
O1237       O  0.34101940  0.43116970  0.95360927    -0.53500
C1238       C  0.31130646  0.40571497  0.93301477     0.69900
O1239       O  0.12551448  0.38450995  0.91987576    -0.75000
O1240       O  0.10253274  0.43717895  0.94020484    -0.55600
C1241       C  0.10948754  0.41641180  0.91830733     0.75900
O1242       O  0.35493766  0.56676937  0.99139587    -0.60200
O1243       O  0.38755020  0.51401700  0.99907759    -0.53300
C1244       C  0.39323828  0.55930297  0.99501641     0.72500
Zr1245     Zr  0.25951503  0.52601501  0.48983315     2.54700
O1246       O  0.29433809  0.59202476  0.95102535    -0.80700
O1247       O  0.28744332  0.59353517  0.52498035    -0.94100
Zr1248     Zr  0.20997099  0.41124201  0.93807197     2.64700
O1249       O  0.25112207  0.47978896  0.90435556    -0.99100
O1250       O  0.19648489  0.36582292  0.89408366    -0.81200
O1251       O  0.19462288  0.47328634  0.96007589    -0.84500
O1252       O  0.28200432  0.47500420  0.96438524    -2.19200
O1253       O  0.27159822  0.42263514  0.57429482    -0.67900
O1254       O  0.33503103  0.42841405  0.54641239    -0.52500
C1255       C  0.31461883  0.42440548  0.57047339     0.70900
O1256       O  0.06090979  0.28071985  0.00159359    -0.60800
O1257       O  0.04205321  0.34199298  0.49087005    -0.52800
C1258       C  0.02644798  0.29462257  0.49671881     0.72700
O1259       O  0.22048825  0.28114822  0.00325727    -0.72200
O1260       O  0.30227137  0.35024598  0.00113974    -0.50900
C1261       C  0.27069323  0.30157853  0.00314619     0.74100
O1262       O  0.11164188  0.38301169  0.55381719    -0.67500
O1263       O  0.08095965  0.42798275  0.53297879    -0.54700
C1264       C  0.08748627  0.40792464  0.55510671     0.72400
Zr1265     Zr  0.20428801  0.42959538  0.55082168     2.77500
O1266       O  0.18454197  0.40438591  0.59914921    -0.98300
O1267       O  0.21931593  0.50650094  0.57625731    -0.79100
Zr1268     Zr  0.15837751  0.31666629  0.00040323     2.70100
O1269       O  0.12849618  0.25746287  0.54075665    -0.80400
O1270       O  0.12671477  0.24937980  0.96488477    -0.99400
Zr1271     Zr  0.11959147  0.42338694  0.48894183     2.21500
Zr1272     Zr  0.30339469  0.43091279  0.99919461     2.11100
O1273       O  0.22524371  0.37233245  0.52760961    -2.48100
O1274       O  0.13645843  0.37187131  0.52131433    -0.80100
O1275       O  0.27805995  0.48121553  0.52402767    -0.72300
O1276       O  0.13854832  0.36382315  0.96747632    -2.33300
O1277       O  0.18891631  0.48073995  0.51906140    -2.29500
O1278       O  0.23055801  0.36730642  0.97215499    -0.74100
H1279       H  0.31064323  0.49509016  0.95239680     0.77900
H1280       H  0.10833498  0.33725767  0.95794068     0.79000
H1281       H  0.23301646  0.35269280  0.54062082     0.81200
H1282       H  0.18050180  0.50390224  0.52870757     0.78800
H1283       H  0.18048205  0.32911171  0.89919160     0.41900
H1284       H  0.15530955  0.26131307  0.95160649     0.40800
H1285       H  0.14286709  0.28230214  0.55645888     0.40500
H1286       H  0.18500552  0.37169165  0.60083089     0.38400
H1287       H  0.18588132  0.49682321  0.58489576     0.41600
H1288       H  0.31975438  0.62199730  0.51768454     0.36300
H1289       H  0.31745182  0.58346282  0.94061474     0.42500
H1290       H  0.22906127  0.46648523  0.88748125     0.38900
H1291       H  0.21456897  0.42982479  0.61030418     0.43800
H1292       H  0.29863263  0.58069192  0.54095411     0.42500
H1293       H  0.24506593  0.50750767  0.91120108     0.42700
H1294       H  0.12606495  0.21964299  0.97413510     0.43000
O1295       O  0.43318321  0.16523214  0.92743677    -0.75900
O1296       O  0.43434874  0.10209359  0.95279624    -0.54800
C1297       C  0.43416612  0.12321190  0.92942557     0.77900
O1298       O  0.56785570  0.35813393  0.02752132    -0.60500
O1299       O  0.51306918  0.38968080  0.02381744    -0.53500
C1300       C  0.55932448  0.39619232  0.02716977     0.69900
O1301       O  0.56130209  0.20442189  0.51205628    -0.75000
O1302       O  0.50820307  0.12050881  0.50096561    -0.55600
C1303       C  0.55379326  0.15928103  0.50627867     0.75900
O1304       O  0.38737950  0.27731036  0.95451905    -0.60200
O1305       O  0.43202426  0.35185817  0.97653802    -0.53300
C1306       C  0.41151078  0.32621158  0.95406369     0.72500
Zr1307     Zr  0.43748114  0.23450623  0.95454930     2.54700
O1308       O  0.51810204  0.29921892  0.93431084    -0.80700
O1309       O  0.41904192  0.24399396  0.90625782    -0.94100
Zr1310     Zr  0.52613090  0.26085279  0.51719209     2.64700
O1311       O  0.60288587  0.31296733  0.98709089    -0.99100
O1312       O  0.58680025  0.28299561  0.55587028    -0.81200
O1313       O  0.48727122  0.20848143  0.98108160    -0.84500
O1314       O  0.48682956  0.29621431  0.98938072    -2.19200
O1315       O  0.28074529  0.22307297  0.00107472    -0.67900
O1316       O  0.34665306  0.30272012  0.01471015    -0.52500
C1317       C  0.29963665  0.27217418  0.00676878     0.70900
O1318       O  0.36935113  0.09762898  0.56052170    -0.60800
O1319       O  0.42412991  0.07676325  0.54351891    -0.52800
C1320       C  0.40033262  0.08092399  0.56446691     0.72700
O1321       O  0.38006555  0.24365718  0.58915934    -0.72200
O1322       O  0.42200025  0.32105445  0.56799916    -0.50900
C1323       C  0.40264194  0.29272733  0.58964637     0.74100
O1324       O  0.27874614  0.06241184  0.99622643    -0.67500
O1325       O  0.34292033  0.04410698  0.49565003    -0.54700
C1326       C  0.29398023  0.02707022  0.49481776     0.72400
Zr1327     Zr  0.31541334  0.16005570  0.00176622     2.77500
O1328       O  0.24330136  0.11930084  0.53720987    -0.98300
O1329       O  0.26092161  0.13825962  0.96040874    -0.79100
Zr1330     Zr  0.40517687  0.18906200  0.56535729     2.70100
O1331       O  0.35338645  0.15006420  0.60614416    -0.80400
O1332       O  0.47103612  0.20705294  0.60065442    -0.99400
Zr1333     Zr  0.42467975  0.12205854  0.50100982     2.21500
Zr1334     Zr  0.42806015  0.30508855  0.01889929     2.11100
O1335       O  0.35903088  0.21776456  0.53733548    -2.48100
O1336       O  0.36116326  0.12892267  0.52891863    -0.80100
O1337       O  0.37864103  0.24047580  0.98406629    -0.72300
O1338       O  0.46856906  0.18275134  0.53854194    -2.33300
O1339       O  0.37767717  0.15331858  0.97341584    -2.29500
O1340       O  0.46851897  0.26923881  0.54713189    -0.74100
H1341       H  0.51029727  0.32890774  0.98126916     0.77900
H1342       H  0.48811845  0.17220907  0.55013193     0.79000
H1343       H  0.33419955  0.22245392  0.54763753     0.81200
H1344       H  0.35882682  0.12825277  0.95895769     0.78800
H1345       H  0.57466819  0.25048882  0.56608895     0.41900
H1346       H  0.49738318  0.24351683  0.59783136     0.40800
H1347       H  0.31733240  0.13615236  0.59960775     0.40500
H1348       H  0.25579147  0.10361925  0.55106976     0.38400
H1349       H  0.22696367  0.13086179  0.96741480     0.41600
H1350       H  0.38667252  0.21196103  0.90145991     0.36300
H1351       H  0.53126842  0.27912218  0.92447007     0.42500
H1352       H  0.59457679  0.28969598  0.97084220     0.38900
H1353       H  0.24588053  0.14978143  0.54684826     0.43800
H1354       H  0.44591002  0.24229383  0.89527282     0.42500
H1355       H  0.59940145  0.34205697  0.97998833     0.42700
H1356       H  0.45489981  0.20739123  0.61839703     0.43000
C1357       C  0.40042559  0.30327752  0.66786083    -0.13900
C1358       C  0.44776078  0.34820038  0.67275571     0.08200
C1359       C  0.47461543  0.37837065  0.64969937    -0.13900
C1360       C  0.45640559  0.36317652  0.62268423    -0.13900
C1361       C  0.41140848  0.31647804  0.61760532     0.08200
C1362       C  0.38267151  0.28727293  0.64048252    -0.13900
H1363       H  0.37818349  0.27981105  0.68497451     0.12200
H1364       H  0.51061540  0.41416534  0.65236153     0.12200
H1365       H  0.47976531  0.38625864  0.60572324     0.12200
H1366       H  0.34771918  0.25071051  0.63715377     0.12200
C1367       C  0.48544701  0.40340666  0.89311264    -0.13900
C1368       C  0.44968085  0.37902027  0.87127864     0.08200
C1369       C  0.39961204  0.34037271  0.87729260    -0.13900
C1370       C  0.38583872  0.32594891  0.90479751    -0.13900
C1371       C  0.42190082  0.35018298  0.92664089     0.08200
C1372       C  0.47165514  0.38943429  0.92057117    -0.13900
H1373       H  0.52429780  0.43335388  0.88876870     0.12200
H1374       H  0.37100657  0.32243095  0.86085154     0.12200
H1375       H  0.34736784  0.29485929  0.90900123     0.12200
H1376       H  0.50056843  0.40743555  0.93687144     0.12200
C1377       C  0.69160485  0.60252393  0.67184508    -0.13900
C1378       C  0.65896189  0.55006169  0.67685750     0.08200
C1379       C  0.63751794  0.51587335  0.65396743    -0.13900
C1380       C  0.64742218  0.53343293  0.62696519    -0.13900
C1381       C  0.68073388  0.58540958  0.62182619     0.08200
C1382       C  0.70316107  0.61996797  0.64447072    -0.13900
H1383       H  0.70766148  0.62984646  0.68892163     0.12200
H1384       H  0.61201087  0.47501199  0.65681457     0.12200
H1385       H  0.63121577  0.50569915  0.61004537     0.12200
H1386       H  0.73030573  0.66022250  0.64096456     0.12200
C1387       C  0.59127897  0.54576967  0.89597428    -0.13900
C1388       C  0.62518925  0.56619845  0.87342734     0.08200
C1389       C  0.67712925  0.60102757  0.87878567    -0.13900
C1390       C  0.69504187  0.61320568  0.90619258    -0.13900
C1391       C  0.66192369  0.58878818  0.92867116     0.08200
C1392       C  0.60951531  0.55618442  0.92329724    -0.13900
H1393       H  0.55038432  0.52061366  0.89246180     0.12200
H1394       H  0.70355103  0.61909335  0.86192820     0.12200
H1395       H  0.73551603  0.64037495  0.90973628     0.12200
H1396       H  0.58299566  0.53732094  0.94002022     0.12200
C1397       C  0.56235566  0.66525375  0.64743662    -0.13900
C1398       C  0.56227112  0.61874264  0.65021190     0.08200
C1399       C  0.56561785  0.59427926  0.62567782    -0.13900
C1400       C  0.56802077  0.61545012  0.59922585    -0.13900
C1401       C  0.56675967  0.66153766  0.59656432     0.08200
C1402       C  0.56439424  0.68605580  0.62127240    -0.13900
H1403       H  0.55948141  0.68520103  0.66551263     0.12200
H1404       H  0.56530142  0.55805810  0.62683903     0.12200
H1405       H  0.57012964  0.59544560  0.58096941     0.12200
H1406       H  0.56327450  0.72159848  0.62059296     0.12200
C1407       C  0.59875284  0.67232124  0.85518245    -0.13900
C1408       C  0.54580920  0.64383181  0.84867345     0.08200
C1409       C  0.51093315  0.62328034  0.87075347    -0.13900
C1410       C  0.52814210  0.63120336  0.89838457    -0.13900
C1411       C  0.58072563  0.66081884  0.90488467     0.08200
C1412       C  0.61593280  0.68090869  0.88299897    -0.13900
H1413       H  0.62684687  0.68684983  0.83883840     0.12200
H1414       H  0.46991841  0.60030473  0.86663599     0.12200
H1415       H  0.50003062  0.61626249  0.91471863     0.12200
H1416       H  0.65679739  0.70430975  0.88751365     0.12200
C1417       C  0.41583945  0.45637688  0.62671188    -0.13900
C1418       C  0.38476665  0.43635512  0.65042964     0.08200
C1419       C  0.33137202  0.40691663  0.64664998    -0.13900
C1420       C  0.30950673  0.39958881  0.62008369    -0.13900
C1421       C  0.34024661  0.42244941  0.59661252     0.08200
C1422       C  0.39383192  0.44967577  0.60010008    -0.13900
H1423       H  0.45736945  0.47917258  0.62882560     0.12200
H1424       H  0.30647196  0.39018347  0.66422494     0.12200
H1425       H  0.26792790  0.37759322  0.61806438     0.12200
H1426       H  0.41848145  0.46814847  0.58263444     0.12200
C1427       C  0.35400038  0.48840902  0.86908845    -0.13900
C1428       C  0.33876959  0.45185079  0.84729688     0.08200
C1429       C  0.31252124  0.39947265  0.85417135    -0.13900
C1430       C  0.30520259  0.38441189  0.88209104    -0.13900
C1431       C  0.32508730  0.42136314  0.90376514     0.08200
C1432       C  0.34888610  0.47351342  0.89685804    -0.13900
H1433       H  0.37544642  0.52912810  0.86455887     0.12200
H1434       H  0.30190759  0.37035820  0.83810818     0.12200
H1435       H  0.28523927  0.34375900  0.88679950     0.12200
H1436       H  0.36303911  0.50290959  0.91294823     0.12200
C1437       C  0.89785453  0.53435442  0.61147699    -0.13900
C1438       C  0.91671709  0.58664516  0.60661648     0.08200
C1439       C  0.92750702  0.62008576  0.62959176    -0.13900
C1440       C  0.92042925  0.60145988  0.65691475    -0.13900
C1441       C  0.90091546  0.54879748  0.66169016     0.08200
C1442       C  0.88910930  0.51563837  0.63840582    -0.13900
H1443       H  0.88817817  0.50736414  0.59436717     0.12200
H1444       H  0.94159073  0.66066249  0.62638972     0.12200
H1445       H  0.93133335  0.62823442  0.67419736     0.12200
H1446       H  0.87433408  0.47476864  0.64093076     0.12200
C1447       C  0.96689355  0.55220223  0.88536159    -0.13900
C1448       C  0.94358229  0.55880745  0.86113660     0.08200
C1449       C  0.90631631  0.57334568  0.86411600    -0.13900
C1450       C  0.89082951  0.57861767  0.89043450    -0.13900
C1451       C  0.91107984  0.56824946  0.91469317     0.08200
C1452       C  0.95059065  0.55656175  0.91190965    -0.13900
H1453       H  0.99679877  0.54207890  0.88384134     0.12200
H1454       H  0.88844617  0.57983953  0.84611612     0.12200
H1455       H  0.86143151  0.58947917  0.89160003     0.12200
H1456       H  0.96740743  0.54893900  0.92998266     0.12200
C1457       C  0.92561029  0.31093329  0.65697798    -0.13900
C1458       C  0.92123886  0.35438189  0.66265964     0.08200
C1459       C  0.92253299  0.38536686  0.64023137    -0.13900
C1460       C  0.92415550  0.37144925  0.61291671    -0.13900
C1461       C  0.92267829  0.32515226  0.60706861     0.08200
C1462       C  0.92596705  0.29619909  0.62933732    -0.13900
H1463       H  0.92609882  0.28717918  0.67367673     0.12200
H1464       H  0.92101135  0.42035236  0.64361816     0.12200
H1465       H  0.92138927  0.39442985  0.59643680     0.12200
H1466       H  0.92491476  0.26006432  0.62536018     0.12200
C1467       C  0.93934300  0.33182644  0.86406164    -0.13900
C1468       C  0.95943621  0.38478008  0.86072655     0.08200
C1469       C  0.96919128  0.41586764  0.88468361    -0.13900
C1470       C  0.95612664  0.39423988  0.91110025    -0.13900
C1471       C  0.93370005  0.34097372  0.91431409     0.08200
C1472       C  0.92728873  0.31030982  0.89053319    -0.13900
H1473       H  0.93244947  0.30700591  0.84622077     0.12200
H1474       H  0.98517751  0.45699165  0.88291778     0.12200
H1475       H  0.96154281  0.41893060  0.92878896     0.12200
H1476       H  0.91095957  0.26907391  0.89214957     0.12200
C1477       C  0.06044033  0.47221102  0.61531000    -0.13900
C1478       C  0.06488769  0.44541967  0.63818550     0.08200
C1479       C  0.07227536  0.40352766  0.63319801    -0.13900
C1480       C  0.07580360  0.38927087  0.60592937    -0.13900
C1481       C  0.07318336  0.41724076  0.58306574     0.08200
C1482       C  0.06467333  0.45847628  0.58808814    -0.13900
H1483       H  0.05410273  0.50433918  0.61860904     0.12200
H1484       H  0.07404958  0.38113745  0.65028049     0.12200
H1485       H  0.08168314  0.35676350  0.60275355     0.12200
H1486       H  0.06299295  0.48115850  0.57112393     0.12200
C1487       C  0.10338563  0.41856527  0.83991569    -0.13900
C1488       C  0.12488030  0.47137399  0.83499597     0.08200
C1489       C  0.13834081  0.50518461  0.85803791    -0.13900
C1490       C  0.12906628  0.48681813  0.88513526    -0.13900
C1491       C  0.10716847  0.43409358  0.89005337     0.08200
C1492       C  0.09512477  0.40022043  0.86717185    -0.13900
H1493       H  0.09125864  0.39137509  0.82275621     0.12200
H1494       H  0.15497341  0.54616306  0.85502373     0.12200
H1495       H  0.14100569  0.51412307  0.90225650     0.12200
H1496       H  0.07954914  0.35940715  0.87045196     0.12200
C1497       C  0.08651577  0.67135832  0.63454948    -0.13900
C1498       C  0.05248239  0.61893160  0.63799007     0.10000
C1499       C  0.03129748  0.58740026  0.61393623    -0.13900
C1500       C  0.04698065  0.60721807  0.58725307    -0.13900
C1501       C  0.08372121  0.65911306  0.58410363     0.08200
C1502       C  0.10129545  0.69120435  0.60805242    -0.13900
H1503       H  0.10282704  0.69690211  0.65234464     0.12200
H1504       H  0.00387603  0.54675501  0.61569889     0.12200
H1505       H  0.03230204  0.58164700  0.56938201     0.12200
H1506       H  0.12848415  0.73193977  0.60648224     0.12200
C1507       C  0.07998296  0.68940234  0.84235525    -0.13900
C1508       C  0.10099548  0.65757805  0.83656965     0.08200
C1509       C  0.11199880  0.63460224  0.85919448    -0.13900
C1510       C  0.10176212  0.64208866  0.88642142    -0.13900
C1511       C  0.08188129  0.67449372  0.89233800     0.08200
C1512       C  0.07130058  0.69837545  0.87002622    -0.13900
H1513       H  0.06961413  0.70662679  0.82563116     0.12200
H1514       H  0.12784029  0.60953416  0.85588975     0.12200
H1515       H  0.11149324  0.62398951  0.90297157     0.12200
H1516       H  0.05659816  0.72425758  0.87406754     0.12200
C1517       C  0.32884086  0.93096412  0.62161136    -0.13900
C1518       C  0.38195844  0.95263169  0.62562371     0.08200
C1519       C  0.41361660  0.96594150  0.60202280    -0.13900
C1520       C  0.39233130  0.95421693  0.57517810    -0.13900
C1521       C  0.33890940  0.92994950  0.57126603     0.08200
C1522       C  0.30770811  0.92066859  0.59476879    -0.13900
H1523       H  0.30365900  0.92172625  0.63918337     0.12200
H1524       H  0.45507842  0.98412817  0.60427397     0.12200
H1525       H  0.41748459  0.96237127  0.55767888     0.12200
H1526       H  0.26631039  0.90322771  0.59256025     0.12200
C1527       C  0.29741927  0.92314895  0.85724914    -0.13900
C1528       C  0.31103929  0.89853600  0.87771985     0.08200
C1529       C  0.32868907  0.86529696  0.86940253    -0.13900
C1530       C  0.33465967  0.85829430  0.84133992    -0.13900
C1531       C  0.32593555  0.88659422  0.82086361     0.08200
C1532       C  0.30576246  0.91803981  0.82908529    -0.13900
H1533       H  0.28149577  0.94726417  0.86315251     0.12200
H1534       H  0.33697043  0.84388307  0.88466091     0.12200
H1535       H  0.35155433  0.83486407  0.83577916     0.12200
H1536       H  0.30047490  0.94182995  0.81406290     0.12200
C1537       C  0.59881344  0.93679030  0.62078056    -0.13900
C1538       C  0.55050210  0.93012379  0.62735207     0.08200
C1539       C  0.51498653  0.92176791  0.60576417    -0.13900
C1540       C  0.52706226  0.91894251  0.57808391    -0.13900
C1541       C  0.57505461  0.92452757  0.57155410     0.08200
C1542       C  0.61094888  0.93403543  0.59313892    -0.13900
H1543       H  0.62761042  0.94563604  0.63689417     0.12200
H1544       H  0.47778505  0.91749346  0.61045122     0.12200
H1545       H  0.49831807  0.91051406  0.56199220     0.12200
H1546       H  0.64832308  0.93852477  0.58858123     0.12200
C1547       C  0.57571527  0.88256563  0.82869683    -0.13900
C1548       C  0.52939740  0.88264151  0.82409127     0.08200
C1549       C  0.50387929  0.88782841  0.84737899    -0.13900
C1550       C  0.52333973  0.89177327  0.87436212    -0.13900
C1551       C  0.56868885  0.89003626  0.87904898     0.08200
C1552       C  0.59492302  0.88593189  0.85580957    -0.13900
H1553       H  0.59710597  0.87997516  0.81140960     0.12200
H1554       H  0.46858320  0.88918690  0.84482365     0.12200
H1555       H  0.50166457  0.89406133  0.89160236     0.12200
H1556       H  0.62996244  0.88417652  0.85861876     0.12200
C1557       C  0.61784351  0.07721946  0.62821528    -0.13900
C1558       C  0.64867257  0.07715324  0.65073948     0.08200
C1559       C  0.69088030  0.07067535  0.64473468    -0.13900
C1560       C  0.70351222  0.06793710  0.61687930    -0.13900
C1561       C  0.67370532  0.07078290  0.59463744     0.08200
C1562       C  0.62975179  0.07349377  0.60083249    -0.13900
H1563       H  0.58396019  0.08065956  0.63156379     0.12200
H1564       H  0.71476977  0.06926229  0.66132764     0.12200
H1565       H  0.73770386  0.06548674  0.61271529     0.12200
H1566       H  0.60611901  0.07604195  0.58444016     0.12200
C1567       C  0.58550731  0.03230259  0.87306772    -0.13900
C1568       C  0.61793017  0.04651538  0.84972135     0.08200
C1569       C  0.67116468  0.07181203  0.85407530    -0.13900
C1570       C  0.69154315  0.08589816  0.88089945    -0.13900
C1571       C  0.65929494  0.07667736  0.90391088     0.08200
C1572       C  0.60597775  0.04762617  0.89993507    -0.13900
H1573       H  0.54405211  0.01157055  0.87046412     0.12200
H1574       H  0.69701813  0.08193675  0.83675284     0.12200
H1575       H  0.73306824  0.10707000  0.88345228     0.12200
H1576       H  0.58027503  0.03982207  0.91714332     0.12200
C1577       C  0.48870626  0.11287229  0.62660236    -0.13900
C1578       C  0.45491740  0.10056399  0.64921937     0.08200
C1579       C  0.40198310  0.07849679  0.64334074    -0.13900
C1580       C  0.38375391  0.06928965  0.61567215    -0.13900
C1581       C  0.41781863  0.08102743  0.59336493     0.08200
C1582       C  0.47040719  0.10240054  0.59924281    -0.13900
H1583       H  0.52980639  0.12952047  0.63005559     0.12200
H1584       H  0.37462619  0.06695545  0.65999428     0.12200
H1585       H  0.34286733  0.05301054  0.61163145     0.12200
H1586       H  0.49778239  0.11301624  0.58262328     0.12200
C1587       C  0.42908115  0.12225724  0.87756819    -0.13900
C1588       C  0.43633238  0.10073086  0.90211825     0.08200
C1589       C  0.44953138  0.06213346  0.89954636    -0.13900
C1590       C  0.45701026  0.04703665  0.87316762    -0.13900
C1591       C  0.45217553  0.07065332  0.84877897     0.08200
C1592       C  0.43736889  0.10786980  0.85142393    -0.13900
H1593       H  0.41793317  0.15148836  0.87840985     0.12200
H1594       H  0.45534369  0.04461543  0.91778966     0.12200
H1595       H  0.46739619  0.01728823  0.87196510     0.12200
H1596       H  0.43237478  0.12614299  0.83327336     0.12200
loop_ 
_geom_bond_atom_site_label_1 
_geom_bond_atom_site_label_2 
_geom_bond_distance 
_geom_bond_site_symmetry_2 
_ccdc_geom_bond_type 
O1          Zr13   2.504       .  S
O1            C3   1.300       .  A
O2          Zr39   2.360       .  S
O2            C3   1.272   1_565  A
C3          C770   1.482       .  S
O4          Zr16   2.527       .  S
O4            C6   1.295       .  A
O5          Zr40   2.361       .  S
O5            C6   1.259       .  A
C6          C780   1.495       .  S
O7          Zr16   2.501       .  S
O7            C9   1.299       .  A
O8          Zr39   2.370   1_545  S
O8            C9   1.275       .  A
C9          C793   1.489       .  S
O10         Zr13   2.527       .  S
O10          C12   1.293       .  A
O11         Zr40   2.361       .  S
O11          C12   1.257       .  A
C12         C760   1.496       .  S
Zr13         O14   2.441       .  S
Zr13         O15   2.444       .  S
Zr13         O19   2.317       .  S
Zr13         O43   2.293   1_545  S
Zr13         O20   2.374       .  S
Zr13         O45   2.355   1_545  S
O14          H57   0.990       .  S
O15          H56   0.990       .  S
O15          H60   0.990       .  S
Zr16         O17   2.441       .  S
Zr16         O18   2.441       .  S
Zr16         O19   2.315       .  S
Zr16         O46   2.283       .  S
Zr16         O20   2.370       .  S
Zr16         O44   2.363   1_545  S
O17          H58   0.991       .  S
O17          H61   0.990       .  S
O18          H51   0.990       .  S
O19         Zr39   2.278   1_545  S
O20         Zr40   2.376       .  S
O20          H47   0.964       .  S
O21         Zr33   2.511       .  S
O21          C23   1.300       .  A
O22         Zr40   2.360   1_565  S
O22          C23   1.273       .  A
C23         C740   1.472       .  S
O24         Zr36   2.525       .  S
O24          C26   1.300       .  A
O25         Zr39   2.337       .  S
O25          C26   1.270       .  A
C26         C733   1.476       .  S
O27         Zr36   2.507       .  S
O27          C29   1.300       .  A
O28         Zr40   2.359   1_565  S
O28          C29   1.274       .  A
C29         C720   1.482       .  S
O30         Zr33   2.511       .  S
O30          C32   1.290       .  A
O31         Zr39   2.384       .  S
O31          C32   1.263       .  A
C32         C750   1.500       .  S
Zr33         O34   2.441       .  S
Zr33         O35   2.442       .  S
Zr33         O42   2.312       .  S
Zr33         O43   2.297       .  S
Zr33         O41   2.378       .  S
Zr33         O45   2.397       .  S
O34          H54   0.990       .  S
O34          H59   0.990       .  S
O35          H55   0.990       .  S
Zr36         O37   2.442       .  S
Zr36         O38   2.441       .  S
Zr36         O42   2.305       .  S
Zr36         O46   2.290   1_565  S
Zr36         O41   2.383       .  S
Zr36         O44   2.377       .  S
O37          H53   0.990       .  S
O38          H52   0.990       .  S
O38          H62   0.990       .  S
Zr39         O42   2.273       .  S
Zr39         O44   2.376       .  S
Zr39         O45   2.385       .  S
Zr40         O43   2.280   1_545  S
Zr40         O46   2.274       .  S
Zr40         O41   2.379   1_545  S
O41          H49   0.963       .  S
O44          H48   0.966       .  S
O45          H50   0.964       .  S
O63         Zr75   2.509       .  S
O63          C65   1.288       .  A
O64        Zr101   2.374       .  S
O64          C65   1.259       .  A
C65         C690   1.492       .  S
O66         Zr78   2.522       .  S
O66          C68   1.304       .  A
O67        Zr102   2.393   1_455  S
O67          C68   1.279       .  A
C68         C700   1.502       .  S
O69         Zr78   2.538       .  S
O69          C71   1.297       .  A
O70        Zr101   2.372       .  S
O70          C71   1.263       .  A
C71         C710   1.499       .  S
O72         Zr75   2.512       .  S
O72          C74   1.301       .  A
O73        Zr102   2.379       .  S
O73          C74   1.277   1_655  A
C74         C680   1.491       .  S
Zr75         O76   2.442       .  S
Zr75         O77   2.445       .  S
Zr75         O81   2.317       .  S
Zr75        O105   2.289   1_455  S
Zr75         O82   2.391       .  S
Zr75        O107   2.402   1_455  S
O76         H119   0.990       .  S
O77         H118   0.991       .  S
O77         H122   0.990       .  S
Zr78         O79   2.441       .  S
Zr78         O80   2.442       .  S
Zr78         O81   2.308       .  S
Zr78        O108   2.290   1_455  S
Zr78         O82   2.392       .  S
Zr78        O106   2.393       .  S
O79         H120   0.991       .  S
O79         H123   0.990       .  S
O80         H113   0.990       .  S
O81        Zr101   2.276       .  S
O82        Zr102   2.385   1_455  S
O82         H109   0.965       .  S
O83         Zr95   2.514       .  S
O83          C85   1.293       .  A
O84        Zr102   2.363       .  S
O84          C85   1.257       .  A
C85         C660   1.486       .  S
O86         Zr98   2.523       .  S
O86          C88   1.304       .  A
O87        Zr101   2.368   1_655  S
O87          C88   1.275       .  A
C88         C650   1.493       .  S
O89         Zr98   2.528       .  S
O89          C91   1.295       .  A
O90        Zr102   2.359       .  S
O90          C91   1.258       .  A
C91         C643   1.496       .  S
O92         Zr95   2.516       .  S
O92          C94   1.300       .  A
O93        Zr101   2.379   1_655  S
O93          C94   1.277       .  A
C94         C670   1.482       .  S
Zr95         O96   2.441       .  S
Zr95         O97   2.444       .  S
Zr95        O104   2.307       .  S
Zr95        O105   2.301       .  S
Zr95        O103   2.374       .  S
Zr95        O107   2.351       .  S
O96         H116   0.990       .  S
O96         H121   0.990       .  S
O97         H117   0.990       .  S
Zr98         O99   2.440       .  S
Zr98        O100   2.442       .  S
Zr98        O104   2.309       .  S
Zr98        O108   2.297       .  S
Zr98        O103   2.371       .  S
Zr98        O106   2.348   1_655  S
O99         H115   0.990       .  S
O100        H114   0.990       .  S
O100        H124   0.990       .  S
Zr101       O104   2.280   1_455  S
Zr101       O106   2.385       .  S
Zr101       O107   2.388   1_455  S
Zr102       O105   2.285       .  S
Zr102       O108   2.284       .  S
Zr102       O103   2.394       .  S
O103        H111   0.966       .  S
O106        H110   0.964       .  S
O107        H112   0.964       .  S
O125       Zr137   2.497       .  S
O125        C127   1.286       .  A
O126       Zr163   2.380       .  S
O126        C127   1.261       .  A
C127        C610   1.493       .  S
O128       Zr140   2.513       .  S
O128        C130   1.303       .  A
O129       Zr164   2.374       .  S
O129        C130   1.277       .  A
C130        C620   1.491       .  S
O131       Zr140   2.547       .  S
O131        C133   1.305       .  A
O132       Zr163   2.321       .  S
O132        C133   1.267       .  A
C133        C630   1.480       .  S
O134       Zr137   2.519       .  S
O134        C136   1.302       .  A
O135       Zr164   2.395       .  S
O135        C136   1.279       .  A
C136        C600   1.504       .  S
Zr137       O138   2.442       .  S
Zr137       O139   2.444       .  S
Zr137       O143   2.317       .  S
Zr137       O167   2.292       .  S
Zr137       O144   2.377       .  S
Zr137       O169   2.406       .  S
O138        H181   0.991       .  S
O139        H180   0.991       .  S
O139        H184   0.990       .  S
Zr140       O141   2.441       .  S
Zr140       O142   2.439       .  S
Zr140       O143   2.296       .  S
Zr140       O170   2.291       .  S
Zr140       O144   2.392       .  S
Zr140       O168   2.378       .  S
O141        H182   0.990       .  S
O141        H185   0.991       .  S
O142        H175   0.990       .  S
O143       Zr163   2.272       .  S
O144       Zr164   2.382       .  S
O144        H171   0.965       .  S
O145       Zr157   2.510       .  S
O145        C147   1.290       .  A
O146       Zr164   2.361       .  S
O146        C147   1.256       .  A
C147        C580   1.487       .  S
O148       Zr160   2.511       .  S
O148        C150   1.299       .  A
O149       Zr163   2.376       .  S
O149        C150   1.275       .  A
C150        C570   1.479       .  S
O151       Zr160   2.515       .  S
O151        C153   1.291       .  A
O152       Zr164   2.365       .  S
O152        C153   1.259       .  A
C153        C560   1.493       .  S
O154       Zr157   2.523       .  S
O154        C156   1.302       .  A
O155       Zr163   2.334       .  S
O155        C156   1.267       .  A
C156        C590   1.478       .  S
Zr157       O158   2.442       .  S
Zr157       O159   2.442       .  S
Zr157       O166   2.312       .  S
Zr157       O167   2.303       .  S
Zr157       O165   2.391       .  S
Zr157       O169   2.349       .  S
O158        H178   0.990       .  S
O158        H183   0.990       .  S
O159        H179   0.990       .  S
Zr160       O161   2.441       .  S
Zr160       O162   2.446       .  S
Zr160       O166   2.311       .  S
Zr160       O170   2.292       .  S
Zr160       O165   2.382       .  S
Zr160       O168   2.353       .  S
O161        H177   0.990       .  S
O162        H176   0.990       .  S
O162        H186   0.990       .  S
Zr163       O166   2.270       .  S
Zr163       O168   2.370       .  S
Zr163       O169   2.385       .  S
Zr164       O167   2.282       .  S
Zr164       O170   2.281       .  S
Zr164       O165   2.394       .  S
O165        H173   0.966       .  S
O168        H172   0.965       .  S
O169        H174   0.965       .  S
O187       Zr199   2.420       .  S
O187        C189   1.285       .  A
O188       Zr225   2.527       .  S
O188        C189   1.300       .  A
C189       C1058   1.523       .  S
O190       Zr202   2.410       .  S
O190        C192   1.273       .  A
O191       Zr226   2.477       .  S
O191        C192   1.289       .  A
C192        C593   1.480       .  S
O193       Zr202   2.384       .  S
O193        C195   1.275       .  A
O194      Zr1023   2.494       .  S
O194        C195   1.298       .  A
C195        C653   1.492       .  S
O196       Zr997   2.419       .  S
O196        C198   1.286       .  A
O197       Zr226   2.557       .  S
O197        C198   1.308       .  A
C198        C502   1.533       .  S
Zr199       O994   2.421       .  S
Zr199       O201   2.436       .  S
Zr199       O998   2.425       .  S
Zr199       O229   2.360       .  S
Zr199       O231   2.350       .  S
Zr199      O1003   2.377   1_554  S
Zr199      O1004   2.372   1_554  S
O200       Zr997   2.427       .  S
O200        H243   0.990       .  S
O201        H242   0.990       .  S
O201        H246   0.990       .  S
Zr202       O203   2.441       .  S
Zr202       O204   2.434       .  S
Zr202       O206   2.359       .  S
Zr202       O205   2.365       .  S
Zr202       O230   2.373       .  S
Zr202       O232   2.345       .  S
O203        H244   0.990       .  S
O203        H247   0.990       .  S
O204        H237   0.990       .  S
O205       Zr997   2.377       .  S
O205      Zr1023   2.383       .  S
O206       Zr226   2.388       .  S
O206       Zr997   2.368       .  S
O206        H233   0.965       .  S
O207       Zr219   2.408       .  S
O207        C209   1.274       .  A
O208      Zr1024   2.461       .  S
O208        C209   1.295       .  A
C209        C583   1.474       .  S
O210       Zr222   2.557       .  S
O210       C1010   1.309       .  A
O211       Zr225   2.402       .  S
O211        C212   1.289       .  A
C212       O1008   1.305       .  A
C212       C1137   1.514   1_654  S
O213       Zr222   2.569       .  S
O213        C215   1.312       .  A
O214       Zr226   2.408       .  S
O214        C215   1.291       .  A
C215        C395   1.521       .  S
O216       Zr219   2.408       .  S
O216        C218   1.270       .  A
O217       Zr225   2.458       .  S
O217        C218   1.286       .  A
C218        C640   1.484       .  S
Zr219       O220   2.439       .  S
Zr219       O221   2.434       .  S
Zr219       O227   2.388       .  S
Zr219       O228   2.374       .  S
Zr219       O231   2.392       .  S
Zr219       O229   2.382       .  S
O220        H240   0.990       .  S
O220        H245   0.990       .  S
O221        H241   0.990       .  S
Zr222       O224   2.436       .  S
Zr222      O1021   2.435       .  S
Zr222       O232   2.368       .  S
Zr222       O230   2.404       .  S
Zr222      O1026   2.382       .  S
Zr222      O1025   2.390       .  S
O223      Zr1020   2.434       .  S
O223        H239   0.990       .  S
O224        H238   0.990       .  S
O224        H248   0.990       .  S
Zr225       O992   2.486   1_554  S
Zr225       O228   2.430       .  S
Zr225       O231   2.419       .  S
Zr225      O1003   2.382   1_554  S
Zr225      O1028   2.413   1_554  S
Zr226      O1006   2.465       .  S
Zr226       O232   2.402       .  S
Zr226      O1025   2.438       .  S
Zr226      O1027   2.391       .  S
O227      Zr1020   2.391       .  S
O227      Zr1024   2.437       .  S
O227        H235   0.966       .  S
O228      Zr1020   2.383       .  S
O229      Zr1024   2.391       .  S
O230      Zr1023   2.412       .  S
O230        H234   0.965       .  S
O231        H236   0.965       .  S
O249       Zr261   2.389       .  S
O249        C251   1.279       .  A
O250       Zr287   2.530       .  S
O250        C251   1.301       .  A
C251        C505   1.515       .  S
O252       Zr264   2.405       .  S
O252        C254   1.271       .  A
O253       Zr288   2.470       .  S
O253        C254   1.288       .  A
C254        C673   1.485       .  S
O255       Zr264   2.380       .  S
O255        C257   1.275       .  A
O256      Zr1085   2.475       .  S
O256        C257   1.295       .  A
C257        C773   1.479       .  S
O258      Zr1059   2.405       .  S
O258        C260   1.283       .  A
O259       Zr288   2.538       .  S
O259        C260   1.304       .  A
C260        C987   1.521       .  S
Zr261      O1056   2.408       .  S
Zr261       O263   2.436       .  S
Zr261      O1060   2.434   1_554  S
Zr261       O291   2.356       .  S
Zr261       O293   2.367       .  S
Zr261      O1065   2.367   1_554  S
Zr261      O1066   2.361   1_554  S
O262      Zr1059   2.432       .  S
O262        H305   0.990       .  S
O263        H304   0.990       .  S
O263        H308   0.990       .  S
Zr264       O265   2.441       .  S
Zr264       O266   2.434       .  S
Zr264       O268   2.363       .  S
Zr264       O267   2.369       .  S
Zr264       O292   2.375       .  S
Zr264       O294   2.353       .  S
O265        H306   0.989       .  S
O265        H309   0.990       .  S
O266        H299   0.990       .  S
O267      Zr1059   2.370       .  S
O267      Zr1085   2.388       .  S
O268       Zr288   2.386       .  S
O268      Zr1059   2.354       .  S
O268        H295   0.964       .  S
O269       Zr281   2.404       .  S
O269        C271   1.268       .  A
O270      Zr1086   2.478       .  S
O270        C271   1.293       .  A
C271        C663   1.473       .  S
O272       Zr284   2.581       .  S
O272       C1072   1.315       .  A
O273       Zr287   2.390   1_556  S
O273        C274   1.285       .  A
C274       O1070   1.311       .  A
C274        C404   1.519   1_545  S
O275       Zr284   2.554       .  S
O275        C277   1.309       .  A
O276       Zr288   2.394       .  S
O276        C277   1.288       .  A
C277       C1258   1.508   1_655  S
O278       Zr281   2.407       .  S
O278        C280   1.271       .  A
O279       Zr287   2.471       .  S
O279        C280   1.292       .  A
C280        C763   1.486       .  S
Zr281       O282   2.438       .  S
Zr281       O283   2.436       .  S
Zr281       O289   2.387       .  S
Zr281       O290   2.369       .  S
Zr281       O293   2.387       .  S
Zr281       O291   2.377       .  S
O282        H302   0.990       .  S
O282        H307   0.990       .  S
O283        H303   0.990       .  S
Zr284       O286   2.437       .  S
Zr284      O1083   2.433       .  S
Zr284       O294   2.386       .  S
Zr284       O292   2.390       .  S
Zr284      O1088   2.376       .  S
Zr284      O1087   2.392       .  S
O285      Zr1082   2.435   1_554  S
O285        H301   0.990       .  S
O286        H300   0.990       .  S
O286        H310   0.990       .  S
Zr287      O1054   2.475   1_554  S
Zr287       O290   2.418       .  S
Zr287       O293   2.402       .  S
Zr287      O1065   2.385   1_554  S
Zr287      O1090   2.418   1_554  S
Zr288      O1068   2.471       .  S
Zr288       O294   2.413       .  S
Zr288      O1087   2.424       .  S
Zr288      O1089   2.378       .  S
O289      Zr1082   2.387   1_554  S
O289      Zr1086   2.433       .  S
O289        H297   0.965       .  S
O290      Zr1082   2.381   1_554  S
O291      Zr1086   2.382       .  S
O292      Zr1085   2.420       .  S
O292        H296   0.965       .  S
O293        H298   0.967       .  S
O311       Zr323   2.421       .  S
O311        C313   1.286       .  A
O312       Zr349   2.545       .  S
O312        C313   1.305       .  A
C313        C381   1.529       .  S
O314       Zr326   2.400       .  S
O314        C316   1.268       .  A
O315       Zr350   2.477       .  S
O315        C316   1.288       .  A
C316        C713   1.494       .  S
O317       Zr326   2.395       .  S
O317        C319   1.267       .  A
O318      Zr1147   2.483       .  S
O318        C319   1.295       .  A
C319        C730   1.473       .  S
O320      Zr1121   2.422       .  S
O320        C322   1.287       .  A
O321       Zr350   2.516       .  S
O321        C322   1.298       .  A
C322       C1235   1.518       .  S
Zr323      O1118   2.421       .  S
Zr323       O325   2.433       .  S
Zr323      O1122   2.435       .  S
Zr323       O353   2.375   1_556  S
Zr323       O355   2.371   1_556  S
Zr323      O1127   2.362       .  S
Zr323      O1128   2.351       .  S
O324      Zr1121   2.433       .  S
O324        H367   0.990       .  S
O325        H366   0.990   1_556  S
O325        H370   0.990       .  S
Zr326       O327   2.438       .  S
Zr326       O328   2.434       .  S
Zr326       O330   2.389       .  S
Zr326       O329   2.384       .  S
Zr326       O354   2.390       .  S
Zr326       O356   2.376       .  S
O327        H368   0.990       .  S
O327        H371   0.989       .  S
O328        H361   0.990       .  S
O329      Zr1121   2.359       .  S
O329      Zr1147   2.390       .  S
O330       Zr350   2.415       .  S
O330      Zr1121   2.343       .  S
O330        H357   0.965       .  S
O331       Zr343   2.401       .  S
O331        C333   1.277       .  A
O332      Zr1148   2.496   1_554  S
O332        C333   1.299       .  A
C333        C703   1.498       .  S
O334       Zr346   2.577       .  S
O334       C1134   1.315       .  A
O335       Zr349   2.415       .  S
O335        C336   1.293       .  A
C336       O1132   1.315       .  A
C336        C528   1.528   1_565  S
O337       Zr346   2.561       .  S
O337        C339   1.310       .  A
O338       Zr350   2.398       .  S
O338        C339   1.288       .  A
C339       C1010   1.520   1_455  S
O340       Zr343   2.408       .  S
O340        C342   1.272       .  A
O341       Zr349   2.474   1_554  S
O341        C342   1.290       .  A
C342        C723   1.481       .  S
Zr343       O344   2.439       .  S
Zr343       O345   2.438       .  S
Zr343       O351   2.373       .  S
Zr343       O352   2.352       .  S
Zr343       O355   2.369       .  S
Zr343       O353   2.364       .  S
O344        H364   0.990       .  S
O344        H369   0.990       .  S
O345        H365   0.990       .  S
Zr346       O348   2.434       .  S
Zr346      O1145   2.435       .  S
Zr346       O356   2.391       .  S
Zr346       O354   2.383       .  S
Zr346      O1150   2.373       .  S
Zr346      O1149   2.399       .  S
O347      Zr1144   2.434   1_554  S
O347        H363   0.990       .  S
O348        H362   0.990       .  S
O348        H372   0.990       .  S
Zr349      O1116   2.486       .  S
Zr349       O352   2.408   1_556  S
Zr349       O355   2.397   1_556  S
Zr349      O1127   2.390       .  S
Zr349      O1152   2.431       .  S
Zr350      O1130   2.489       .  S
Zr350       O356   2.431       .  S
Zr350      O1149   2.423       .  S
Zr350      O1151   2.385       .  S
O351      Zr1144   2.407   1_554  S
O351      Zr1148   2.419   1_554  S
O351        H359   0.966       .  S
O352      Zr1144   2.369   1_554  S
O353      Zr1148   2.378   1_554  S
O354      Zr1147   2.438       .  S
O354        H358   0.965       .  S
O355        H360   0.965       .  S
O373       Zr385   2.417       .  S
O373        C375   1.275       .  A
O374      Zr1209   2.483       .  S
O374        C375   1.295       .  A
C375        C753   1.492       .  S
O376      Zr1186   2.403       .  S
O376        C378   1.283       .  A
O377       Zr412   2.509       .  S
O377        C378   1.297       .  A
C378        C446   1.509       .  S
O379       Zr388   2.409       .  S
O379        C381   1.284       .  A
O380       Zr411   2.545       .  S
O380        C381   1.305       .  A
O382       Zr385   2.403       .  S
O382        C384   1.269       .  A
O383       Zr412   2.469       .  S
O383        C384   1.285       .  A
C384        C613   1.487       .  S
Zr385       O386   2.435       .  S
Zr385       O387   2.440       .  S
Zr385       O391   2.374       .  S
Zr385       O392   2.388       .  S
Zr385       O415   2.379       .  S
Zr385       O417   2.379       .  S
O386        H429   0.990       .  S
O387        H428   0.990       .  S
O387        H432   0.990       .  S
Zr388      O1174   2.389       .  S
Zr388       O390   2.434   1_556  S
Zr388      O1187   2.435       .  S
Zr388       O416   2.347   1_556  S
Zr388       O418   2.367   1_556  S
Zr388      O1190   2.360       .  S
Zr388      O1189   2.361       .  S
O389      Zr1186   2.437       .  S
O389        H430   0.990       .  S
O389        H433   0.990       .  S
O390        H423   0.990       .  S
O391      Zr1186   2.365       .  S
O391      Zr1209   2.378       .  S
O392       Zr412   2.415       .  S
O392      Zr1186   2.354       .  S
O392        H419   0.965       .  S
O393       Zr405   2.564       .  S
O393        C395   1.310       .  A
O394       Zr412   2.400       .  S
O394        C395   1.288       .  A
O396       Zr408   2.408       .  S
O396        C398   1.271       .  A
O397       Zr411   2.458   1_554  S
O397        C398   1.283       .  A
C398        C743   1.478       .  S
O399       Zr408   2.414       .  S
O399        C401   1.282       .  A
O400      Zr1210   2.493   1_554  S
O400        C401   1.300       .  A
C401        C603   1.504       .  S
O402       Zr405   2.566       .  S
O402       C1202   1.312       .  A
O403       Zr411   2.417       .  S
O403        C404   1.293       .  A
C404       O1200   1.309       .  A
Zr405       O407   2.434       .  S
Zr405      O1204   2.436       .  S
Zr405       O417   2.410       .  S
Zr405       O415   2.383       .  S
Zr405      O1211   2.404       .  S
Zr405      O1212   2.372       .  S
O406      Zr1203   2.437   1_554  S
O406        H426   0.990       .  S
O406        H431   0.990       .  S
O407        H427   0.990       .  S
Zr408       O409   2.435       .  S
Zr408       O410   2.437       .  S
Zr408       O414   2.360       .  S
Zr408       O413   2.372       .  S
Zr408       O418   2.366       .  S
Zr408       O416   2.377       .  S
O409        H425   0.990       .  S
O410        H424   0.990       .  S
O410        H434   0.989       .  S
Zr411      O1172   2.484       .  S
Zr411       O414   2.430   1_556  S
Zr411       O416   2.400   1_556  S
Zr411      O1189   2.374       .  S
Zr411      O1215   2.436       .  S
Zr412      O1198   2.503       .  S
Zr412       O415   2.434       .  S
Zr412      O1211   2.417       .  S
Zr412      O1216   2.379       .  S
O413      Zr1203   2.406   1_554  S
O413      Zr1210   2.420   1_554  S
O413        H421   0.966       .  S
O414      Zr1203   2.379   1_554  S
O416        H420   0.966       .  S
O417      Zr1209   2.436       .  S
O417        H422   0.966       .  S
O418      Zr1210   2.378   1_554  S
O435       Zr447   2.393       .  S
O435        C437   1.280       .  A
O436       Zr473   2.540       .  S
O436        C437   1.305       .  A
C437       C1120   1.519       .  S
O438       Zr450   2.402       .  S
O438        C440   1.267       .  A
O439       Zr474   2.471       .  S
O439        C440   1.286       .  A
C440        C633   1.480       .  S
O441       Zr450   2.398       .  S
O441        C443   1.274       .  A
O442      Zr1271   2.481       .  S
O442        C443   1.297       .  A
C443        C693   1.479       .  S
O444      Zr1245   2.393       .  S
O444        C446   1.280       .  A
O445       Zr474   2.514       .  S
O445        C446   1.298       .  A
Zr447      O1242   2.401       .  S
Zr447       O449   2.437   1_556  S
Zr447      O1246   2.434       .  S
Zr447       O477   2.360   1_556  S
Zr447       O479   2.362   1_556  S
Zr447      O1251   2.361       .  S
Zr447      O1252   2.357       .  S
O448      Zr1245   2.435       .  S
O448        H491   0.990       .  S
O449        H490   0.990       .  S
O449        H494   0.990       .  S
Zr450       O451   2.440       .  S
Zr450       O452   2.436       .  S
Zr450       O454   2.385       .  S
Zr450       O453   2.373       .  S
Zr450       O478   2.376       .  S
Zr450       O480   2.371       .  S
O451        H492   0.989       .  S
O451        H495   0.990       .  S
O452        H485   0.990       .  S
O453      Zr1245   2.364       .  S
O453      Zr1271   2.371       .  S
O454       Zr474   2.404       .  S
O454      Zr1245   2.358       .  S
O454        H481   0.965       .  S
O455       Zr467   2.397       .  S
O455        C457   1.278       .  A
O456      Zr1272   2.488   1_554  S
O456        C457   1.298       .  A
C457        C623   1.491       .  S
O458       Zr470   2.557       .  S
O458       C1258   1.310       .  A
O459       Zr473   2.408       .  S
O459        C460   1.292       .  A
C460       O1256   1.311   1_556  A
C460       C1075   1.512   1_456  S
O461       Zr470   2.558       .  S
O461        C463   1.309       .  A
O462       Zr474   2.401       .  S
O462        C463   1.287       .  A
C463        C519   1.520       .  S
O464       Zr467   2.415       .  S
O464        C466   1.276       .  A
O465       Zr473   2.484   1_554  S
O465        C466   1.294       .  A
C466        C683   1.492       .  S
Zr467       O468   2.440       .  S
Zr467       O469   2.437       .  S
Zr467       O475   2.384       .  S
Zr467       O476   2.354       .  S
Zr467       O479   2.364       .  S
Zr467       O477   2.366       .  S
O468        H488   0.990       .  S
O468        H493   0.990       .  S
O469        H489   0.990       .  S
Zr470       O472   2.435       .  S
Zr470      O1269   2.434       .  S
Zr470       O480   2.378       .  S
Zr470       O478   2.394       .  S
Zr470      O1274   2.380       .  S
Zr470      O1273   2.395       .  S
O471      Zr1268   2.435       .  S
O471        H487   0.990       .  S
O472        H486   0.990       .  S
O472        H496   0.990       .  S
Zr473      O1240   2.487       .  S
Zr473       O476   2.409   1_556  S
Zr473       O479   2.392   1_556  S
Zr473      O1251   2.378       .  S
Zr473      O1276   2.434       .  S
Zr474      O1254   2.477       .  S
Zr474       O480   2.420       .  S
Zr474      O1273   2.421       .  S
Zr474      O1275   2.386       .  S
O475      Zr1268   2.398       .  S
O475      Zr1272   2.423   1_554  S
O475        H483   0.965       .  S
O476      Zr1268   2.381       .  S
O477      Zr1272   2.390   1_554  S
O478      Zr1271   2.425       .  S
O478        H482   0.965       .  S
O479        H484   0.966       .  S
O497       Zr509   2.390       .  S
O497        C499   1.276       .  A
O498      Zr1333   2.488       .  S
O498        C499   1.298       .  A
C499        C790   1.493       .  S
O500      Zr1310   2.421       .  S
O500        C502   1.287       .  A
O501       Zr536   2.545       .  S
O501        C502   1.304       .  A
O503       Zr512   2.412       .  S
O503        C505   1.286       .  A
O504       Zr535   2.515       .  S
O504        C505   1.298       .  A
O506       Zr509   2.400       .  S
O506        C508   1.268       .  A
O507       Zr536   2.460       .  S
O507        C508   1.282       .  A
C508        C573   1.481       .  S
Zr509       O510   2.436       .  S
Zr509       O511   2.439       .  S
Zr509       O515   2.373       .  S
Zr509       O516   2.373       .  S
Zr509       O539   2.352       .  S
Zr509       O541   2.370       .  S
O510        H553   0.990       .  S
O511        H552   0.990       .  S
O511        H556   0.990       .  S
Zr512      O1298   2.418       .  S
Zr512       O514   2.435       .  S
Zr512      O1311   2.435   1_554  S
Zr512       O540   2.356       .  S
Zr512       O542   2.362       .  S
Zr512      O1314   2.356   1_554  S
Zr512      O1313   2.369   1_554  S
O513      Zr1310   2.434       .  S
O513        H554   0.990       .  S
O513        H557   0.990       .  S
O514        H547   0.990       .  S
O515      Zr1310   2.369       .  S
O515      Zr1333   2.381       .  S
O516       Zr536   2.395       .  S
O516      Zr1310   2.352       .  S
O516        H543   0.965       .  S
O517       Zr529   2.560       .  S
O517        C519   1.311       .  A
O518       Zr536   2.412       .  S
O518        C519   1.291       .  A
O520       Zr532   2.403       .  S
O520        C522   1.268       .  A
O521       Zr535   2.469       .  S
O521        C522   1.287       .  A
C522        C783   1.484       .  S
O523       Zr532   2.403       .  S
O523        C525   1.275       .  A
O524      Zr1334   2.469       .  S
O524        C525   1.296       .  A
C525        C563   1.479       .  S
O526       Zr529   2.564       .  S
O526       C1326   1.310       .  A
O527       Zr535   2.405   1_556  S
O527        C528   1.288       .  A
C528       O1324   1.312       .  A
Zr529       O531   2.435       .  S
Zr529      O1328   2.437       .  S
Zr529       O541   2.408       .  S
Zr529       O539   2.380       .  S
Zr529      O1335   2.400       .  S
Zr529      O1336   2.378       .  S
O530      Zr1327   2.435       .  S
O530        H550   0.990       .  S
O530        H555   0.990       .  S
O531        H551   0.990       .  S
Zr532       O533   2.434       .  S
Zr532       O534   2.437       .  S
Zr532       O538   2.373       .  S
Zr532       O537   2.375       .  S
Zr532       O542   2.373       .  S
Zr532       O540   2.386       .  S
O533        H549   0.990       .  S
O534        H548   0.990       .  S
O534        H558   0.989       .  S
Zr535      O1296   2.484   1_554  S
Zr535       O538   2.423       .  S
Zr535       O540   2.411       .  S
Zr535      O1313   2.385   1_554  S
Zr535      O1339   2.421   1_554  S
Zr536      O1322   2.471       .  S
Zr536       O539   2.423       .  S
Zr536      O1335   2.428       .  S
Zr536      O1340   2.379       .  S
O537      Zr1327   2.403       .  S
O537      Zr1334   2.427       .  S
O537        H545   0.965       .  S
O538      Zr1327   2.375       .  S
O540        H544   0.965       .  S
O541      Zr1333   2.423       .  S
O541        H546   0.965       .  S
O542      Zr1334   2.373       .  S
C559        C560   1.403       .  A
C559        C564   1.409       .  A
C559        H565   1.083       .  S
C560        C561   1.416       .  A
C561        C562   1.390       .  A
C561        H566   1.081       .  S
C562        C563   1.394       .  A
C562        H567   1.084       .  S
C563        C564   1.415       .  A
C564        H568   1.083       .  S
C569        C570   1.410       .  A
C569        C574   1.404       .  A
C569        H575   1.082       .  S
C570        C571   1.399       .  A
C571        C572   1.400       .  A
C571        H576   1.083       .  S
C572        C573   1.409       .  A
C572        H577   1.083       .  S
C573        C574   1.403       .  A
C574        H578   1.083       .  S
C579        C580   1.401       .  A
C579        C584   1.407       .  A
C579        H585   1.082       .  S
C580        C581   1.416       .  A
C581        C582   1.385       .  A
C581        H586   1.081       .  S
C582        C583   1.392       .  A
C582        H587   1.084       .  S
C583        C584   1.415       .  A
C584        H588   1.083       .  S
C589        C590   1.417       .  A
C589        C594   1.397       .  A
C589        H595   1.083       .  S
C590        C591   1.393       .  A
C591        C592   1.397       .  A
C591        H596   1.083       .  S
C592        C593   1.416       .  A
C592        H597   1.082       .  S
C593        C594   1.396       .  A
C594        H598   1.083       .  S
C599        C600   1.400       .  A
C599        C604   1.402       .  A
C599        H605   1.083       .  S
C600        C601   1.419       .  A
C601        C602   1.410       .  A
C601        H606   1.082       .  S
C602        C603   1.404       .  A
C602        H607   1.083       .  S
C603        C604   1.417       .  A
C604        H608   1.083       .  S
C609        C610   1.403       .  A
C609        C614   1.405       .  A
C609        H615   1.083       .  S
C610        C611   1.414       .  A
C611        C612   1.402       .  A
C611        H616   1.081       .  S
C612        C613   1.402       .  A
C612        H617   1.083       .  S
C613        C614   1.410       .  A
C614        H618   1.083       .  S
C619        C620   1.419       .  A
C619        C624   1.405       .  A
C619        H625   1.082       .  S
C620        C621   1.396       .  A
C621        C622   1.395       .  A
C621        H626   1.083       .  S
C622        C623   1.416       .  A
C622        H627   1.082       .  S
C623        C624   1.400       .  A
C624        H628   1.083       .  S
C629        C630   1.412       .  A
C629        C634   1.397       .  A
C629        H635   1.083       .  S
C630        C631   1.406       .  A
C631        C632   1.409       .  A
C631        H636   1.083       .  S
C632        C633   1.411       .  A
C632        H637   1.083       .  S
C633        C634   1.398       .  A
C634        H638   1.083       .  S
C639        C640   1.396       .  A
C639        C644   1.390       .  A
C639        H645   1.083       .  S
C640        C641   1.413       .  A
C641        C642   1.413       .  A
C641        H646   1.083       .  S
C642        C643   1.404       .  A
C642        H647   1.082       .  S
C643        C644   1.416       .  A
C644        H648   1.083       .  S
C649        C650   1.420       .  A
C649        C654   1.406       .  A
C649        H655   1.082       .  S
C650        C651   1.395       .  A
C651        C652   1.395       .  A
C651        H656   1.083       .  S
C652        C653   1.418       .  A
C652        H657   1.082       .  S
C653        C654   1.398       .  A
C654        H658   1.083       .  S
C659        C660   1.402       .  A
C659        C664   1.405       .  A
C659        H665   1.083       .  S
C660        C661   1.416       .  A
C661        C662   1.393       .  A
C661        H666   1.083       .  S
C662        C663   1.395       .  A
C662        H667   1.084       .  S
C663        C664   1.412       .  A
C664        H668   1.083       .  S
C669        C670   1.399       .  A
C669        C674   1.402       .  A
C669        H675   1.083       .  S
C670        C671   1.410       .  A
C671        C672   1.401       .  A
C671        H676   1.082       .  S
C672        C673   1.400       .  A
C672        H677   1.083       .  S
C673        C674   1.413       .  A
C674        H678   1.083       .  S
C679        C680   1.414       .  A
C679        C684   1.402       .  A
C679        H685   1.080       .  S
C680        C681   1.398       .  A
C681        C682   1.401       .  A
C681        H686   1.083       .  S
C682        C683   1.416       .  A
C682        H687   1.082       .  S
C683        C684   1.400       .  A
C684        H688   1.083       .  S
C689        C690   1.401       .  A
C689        C694   1.405       .  A
C689        H695   1.083       .  S
C690        C691   1.416       .  A
C691        C692   1.395       .  A
C691        H696   1.082       .  S
C692        C693   1.395       .  A
C692        H697   1.084       .  S
C693        C694   1.415       .  A
C694        H698   1.083       .  S
C699        C700   1.399       .  A
C699        C704   1.400       .  A
C699        H705   1.083       .  S
C700        C701   1.419       .  A
C701        C702   1.410       .  A
C701        H706   1.080       .  S
C702        C703   1.400       .  A
C702        H707   1.083       .  S
C703        C704   1.417       .  A
C704        H708   1.082       .  S
C709        C710   1.406       .  A
C709        C714   1.412       .  A
C709        H715   1.083       .  S
C710        C711   1.414       .  A
C711        C712   1.400       .  A
C711        H716   1.083       .  S
C712        C713   1.401       .  A
C712        H717   1.083       .  S
C713        C714   1.413       .  A
C714        H718   1.083       .  S
C719        C720   1.396       .  A
C719        C724   1.398       .  A
C719        H725   1.083       .  S
C720        C721   1.415       .  A
C721        C722   1.396       .  A
C721        H726   1.082       .  S
C722        C723   1.395       .  A
C722        H727   1.083       .  S
C723        C724   1.415       .  A
C724        H728   1.082       .  S
C729        C730   1.410       .  A
C729        C734   1.406       .  A
C729        H735   1.083       .  S
C730        C731   1.397       .  A
C731        C732   1.394       .  A
C731        H736   1.084       .  S
C732        C733   1.411       .  A
C732        H737   1.084       .  S
C733        C734   1.405       .  A
C734        H738   1.083       .  S
C739        C740   1.397       .  A
C739        C744   1.398       .  A
C739        H745   1.083       .  S
C740        C741   1.409       .  A
C741        C742   1.402       .  A
C741        H746   1.081       .  S
C742        C743   1.402       .  A
C742        H747   1.083       .  S
C743        C744   1.409       .  A
C744        H748   1.083       .  S
C749        C750   1.403       .  A
C749        C754   1.407       .  A
C749        H755   1.083       .  S
C750        C751   1.417       .  A
C751        C752   1.402       .  A
C751        H756   1.083       .  S
C752        C753   1.400       .  A
C752        H757   1.083       .  S
C753        C754   1.415       .  A
C754        H758   1.083       .  S
C759        C760   1.417       .  A
C759        C764   1.390       .  A
C759        H765   1.083       .  S
C760        C761   1.402       .  A
C761        C762   1.412       .  A
C761        H766   1.083       .  S
C762        C763   1.418       .  A
C762        H767   1.083       .  S
C763        C764   1.393       .  A
C764        H768   1.083       .  S
C769        C770   1.419       .  A
C769        C774   1.401       .  A
C769        H775   1.082   1_545  S
C770        C771   1.394       .  A
C771        C772   1.391       .  A
C771        H776   1.083       .  S
C772        C773   1.415       .  A
C772        H777   1.083       .  S
C773        C774   1.396       .  A
C774        H778   1.083       .  S
C779        C780   1.416       .  A
C779        C784   1.395       .  A
C779        H785   1.083       .  S
C780        C781   1.404       .  A
C781        C782   1.411       .  A
C781        H786   1.083       .  S
C782        C783   1.413       .  A
C782        H787   1.083       .  S
C783        C784   1.397       .  A
C784        H788   1.083       .  S
C789        C790   1.418       .  A
C789        C794   1.394       .  A
C789        H795   1.082       .  S
C790        C791   1.401       .  A
C791        C792   1.405       .  A
C791        H796   1.083       .  S
C792        C793   1.418       .  A
C792        H797   1.082       .  S
C793        C794   1.396       .  A
C794        H798   1.083       .  S
O799       Zr811   2.515       .  S
O799        C801   1.301       .  A
O800       Zr837   2.356   1_545  S
O800        C801   1.271       .  A
C801       C1568   1.484       .  S
O802       Zr814   2.529       .  S
O802        C804   1.296       .  A
O803       Zr838   2.363       .  S
O803        C804   1.259       .  A
C804       C1578   1.496       .  S
O805       Zr814   2.513       .  S
O805        C807   1.302       .  A
O806       Zr837   2.367   1_545  S
O806        C807   1.274       .  A
C807       C1591   1.492       .  S
O808       Zr811   2.533       .  S
O808        C810   1.294       .  A
O809       Zr838   2.362       .  S
O809        C810   1.256       .  A
C810       C1558   1.500       .  S
Zr811       O812   2.440       .  S
Zr811       O813   2.447       .  S
Zr811       O817   2.318       .  S
Zr811       O841   2.291       .  S
Zr811       O818   2.379       .  S
Zr811       O843   2.357   1_545  S
O812        H855   0.990       .  S
O813        H854   0.991       .  S
O813        H858   0.991       .  S
Zr814       O815   2.442       .  S
Zr814       O816   2.442       .  S
Zr814       O817   2.314       .  S
Zr814       O844   2.285       .  S
Zr814       O818   2.375       .  S
Zr814       O842   2.359   1_545  S
O815        H856   0.991       .  S
O815        H859   0.990       .  S
O816        H849   0.990       .  S
O817       Zr837   2.278   1_545  S
O818       Zr838   2.380       .  S
O818        H845   0.965       .  S
O819       Zr831   2.505       .  S
O819        C821   1.299       .  A
O820       Zr838   2.371   1_565  S
O820        C821   1.275       .  A
C821       C1538   1.473       .  S
O822       Zr834   2.524       .  S
O822        C824   1.300       .  A
O823       Zr837   2.336       .  S
O823        C824   1.269       .  A
C824       C1531   1.472       .  S
O825       Zr834   2.516       .  S
O825        C827   1.303       .  A
O826       Zr838   2.363   1_565  S
O826        C827   1.275       .  A
C827       C1518   1.488       .  S
O828       Zr831   2.504       .  S
O828        C830   1.289       .  A
O829       Zr837   2.383       .  S
O829        C830   1.263       .  A
C830       C1548   1.497       .  S
Zr831       O832   2.442       .  S
Zr831       O833   2.439       .  S
Zr831       O840   2.316       .  S
Zr831       O841   2.289   1_565  S
Zr831       O839   2.386       .  S
Zr831       O843   2.391       .  S
O832        H852   0.990       .  S
O832        H857   0.990       .  S
O833        H853   0.990       .  S
Zr834       O835   2.441       .  S
Zr834       O836   2.442       .  S
Zr834       O840   2.307       .  S
Zr834       O844   2.286   1_565  S
Zr834       O839   2.382       .  S
Zr834       O842   2.379       .  S
O835        H851   0.990       .  S
O836        H850   0.991       .  S
O836        H860   0.990       .  S
Zr837       O840   2.272       .  S
Zr837       O842   2.376       .  S
Zr837       O843   2.379       .  S
Zr838       O841   2.276       .  S
Zr838       O844   2.274       .  S
Zr838       O839   2.380   1_545  S
O839        H847   0.964       .  S
O842        H846   0.966       .  S
O843        H848   0.964       .  S
O861       Zr873   2.510       .  S
O861        C863   1.291       .  A
O862       Zr899   2.376       .  S
O862        C863   1.262       .  A
C863       C1488   1.487       .  S
O864       Zr876   2.517       .  S
O864        C866   1.304       .  A
O865       Zr900   2.368   1_455  S
O865        C866   1.275       .  A
C866       C1498   1.491       .  S
O867       Zr876   2.523       .  S
O867        C869   1.292       .  A
O868       Zr899   2.379       .  S
O868        C869   1.262       .  A
C869       C1508   1.500       .  S
O870       Zr873   2.513       .  S
O870        C872   1.300       .  A
O871       Zr900   2.371   1_455  S
O871        C872   1.274       .  A
C872       C1478   1.484       .  S
Zr873       O874   2.440       .  S
Zr873       O875   2.447       .  S
Zr873       O879   2.306       .  S
Zr873       O903   2.293       .  S
Zr873       O880   2.385       .  S
Zr873       O905   2.402       .  S
O874        H917   0.990       .  S
O875        H916   0.990       .  S
O875        H920   0.991       .  S
Zr876       O877   2.442       .  S
Zr876       O878   2.440       .  S
Zr876       O879   2.309       .  S
Zr876       O906   2.289   1_455  S
Zr876       O880   2.389       .  S
Zr876       O904   2.397       .  S
O877        H918   0.991       .  S
O877        H921   0.990       .  S
O878        H911   0.990       .  S
O879       Zr899   2.272       .  S
O880       Zr900   2.381   1_455  S
O880        H907   0.965       .  S
O881       Zr893   2.510       .  S
O881        C883   1.290       .  A
O882       Zr900   2.359       .  S
O882        C883   1.254       .  A
C883       C1458   1.486       .  S
O884       Zr896   2.520       .  S
O884        C886   1.303       .  A
O885       Zr899   2.359   1_655  S
O885        C886   1.274       .  A
C886       C1448   1.486       .  S
O887       Zr896   2.532       .  S
O887        C889   1.296       .  A
O888       Zr900   2.356       .  S
O888        C889   1.258       .  A
C889       C1441   1.495       .  S
O890       Zr893   2.513       .  S
O890        C892   1.301       .  A
O891       Zr899   2.383       .  S
O891        C892   1.279   1_455  A
C892       C1468   1.491       .  S
Zr893       O894   2.440       .  S
Zr893       O895   2.443       .  S
Zr893       O902   2.307       .  S
Zr893       O903   2.299   1_655  S
Zr893       O901   2.380       .  S
Zr893       O905   2.355   1_655  S
O894        H914   0.990       .  S
O894        H919   0.990       .  S
O895        H915   0.990       .  S
Zr896       O897   2.441       .  S
Zr896       O898   2.448       .  S
Zr896       O902   2.314       .  S
Zr896       O906   2.290       .  S
Zr896       O901   2.366       .  S
Zr896       O904   2.348   1_655  S
O897        H913   0.990       .  S
O898        H912   0.990       .  S
O898        H922   0.990       .  S
Zr899       O902   2.283   1_455  S
Zr899       O904   2.390       .  S
Zr899       O905   2.385       .  S
Zr900       O903   2.280   1_655  S
Zr900       O906   2.278       .  S
Zr900       O901   2.386       .  S
O901        H909   0.966       .  S
O904        H908   0.963       .  S
O905        H910   0.964       .  S
O923       Zr935   2.506       .  S
O923        C925   1.289       .  A
O924       Zr961   2.378       .  S
O924        C925   1.263       .  A
C925       C1408   1.494       .  S
O926       Zr938   2.513       .  S
O926        C928   1.303       .  A
O927       Zr962   2.378       .  S
O927        C928   1.278       .  A
C928       C1418   1.490       .  S
O929       Zr938   2.539       .  S
O929        C931   1.304       .  A
O930       Zr961   2.329       .  S
O930        C931   1.268       .  A
C931       C1428   1.477       .  S
O932       Zr935   2.517       .  S
O932        C934   1.304       .  A
O933       Zr962   2.404       .  S
O933        C934   1.282       .  A
C934       C1398   1.505       .  S
Zr935       O936   2.440       .  S
Zr935       O937   2.440       .  S
Zr935       O941   2.312       .  S
Zr935       O965   2.290       .  S
Zr935       O942   2.381       .  S
Zr935       O967   2.393       .  S
O936        H979   0.990       .  S
O937        H978   0.990       .  S
O937        H982   0.990       .  S
Zr938       O939   2.435       .  S
Zr938       O940   2.440       .  S
Zr938       O941   2.299       .  S
Zr938       O942   2.391       .  S
Zr938       O966   2.371       .  S
Zr938       O968   2.379       .  S
O939        H980   0.990       .  S
O939        H983   0.990       .  S
O940        H973   0.991       .  S
O941       Zr961   2.264       .  S
O942       Zr962   2.382       .  S
O942        H969   0.966       .  S
O943       Zr955   2.501       .  S
O943        C945   1.290       .  A
O944       Zr962   2.359       .  S
O944        C945   1.256       .  A
C945       C1378   1.480       .  S
O946       Zr958   2.498       .  S
O946        C948   1.296       .  A
O947       Zr961   2.363       .  S
O947        C948   1.273       .  A
C948       C1368   1.469       .  S
O949       Zr958   2.521       .  S
O949        C951   1.293       .  A
O950       Zr962   2.367       .  S
O950        C951   1.259       .  A
C951       C1358   1.493       .  S
O952       Zr955   2.518       .  S
O952        C954   1.300       .  A
O953       Zr961   2.337       .  S
O953        C954   1.268       .  A
C954       C1388   1.477       .  S
Zr955       O956   2.443       .  S
Zr955       O957   2.441       .  S
Zr955       O964   2.309       .  S
Zr955       O965   2.301       .  S
Zr955       O963   2.387       .  S
Zr955       O967   2.350       .  S
O956        H976   0.990       .  S
O956        H981   0.991       .  S
O957        H977   0.990       .  S
Zr958       O959   2.436       .  S
Zr958       O960   2.444       .  S
Zr958       O964   2.317       .  S
Zr958       O963   2.378       .  S
Zr958       O968   2.381       .  S
Zr958       O966   2.359       .  S
O959        H975   0.990       .  S
O960        H974   0.990       .  S
O960        H984   0.990       .  S
Zr961       O964   2.271       .  S
Zr961       O966   2.364       .  S
Zr961       O967   2.376       .  S
Zr962       O965   2.281       .  S
Zr962       O963   2.398       .  S
Zr962       O968   2.384       .  S
O963        H971   0.966       .  S
O966        H970   0.962       .  S
O967        H972   0.966       .  S
O985       Zr997   2.417       .  S
O985        C987   1.286       .  A
O986      Zr1023   2.526       .  S
O986        C987   1.300       .  A
O988      Zr1000   2.407       .  S
O988        C990   1.271       .  A
O989      Zr1024   2.469   1_556  S
O989        C990   1.287       .  A
C990       C1391   1.477       .  S
O991      Zr1000   2.378       .  S
O991        C993   1.274       .  A
O992        C993   1.297       .  A
C993       C1451   1.487       .  S
O994        C996   1.286       .  A
O995      Zr1024   2.554       .  S
O995        C996   1.307       .  A
C996       C1300   1.534       .  S
Zr997       O999   2.435       .  S
Zr997      O1027   2.360       .  S
Zr997      O1029   2.351       .  S
O998       H1041   0.990   1_554  S
O999       H1040   0.990       .  S
O999       H1044   0.990       .  S
Zr1000     O1001   2.439       .  S
Zr1000     O1002   2.432       .  S
Zr1000     O1004   2.362       .  S
Zr1000     O1003   2.363       .  S
Zr1000     O1028   2.371       .  S
Zr1000     O1030   2.342       .  S
O1001      H1042   0.990       .  S
O1001      H1045   0.990       .  S
O1002      H1035   0.991       .  S
O1004     Zr1024   2.395   1_556  S
O1004      H1031   0.965       .  S
O1005     Zr1017   2.413       .  S
O1005      C1007   1.272       .  A
O1006      C1007   1.294       .  A
C1007      C1381   1.470       .  S
O1008     Zr1020   2.545       .  S
O1009     Zr1023   2.402       .  S
O1009      C1010   1.288       .  A
O1011     Zr1020   2.569       .  S
O1011      C1013   1.313       .  A
O1012     Zr1024   2.413       .  S
O1012      C1013   1.292       .  A
C1013      C1193   1.526       .  S
O1014     Zr1017   2.410       .  S
O1014      C1016   1.271       .  A
O1015     Zr1023   2.456       .  S
O1015      C1016   1.286       .  A
C1016      C1438   1.484       .  S
Zr1017     O1018   2.440       .  S
Zr1017     O1019   2.436       .  S
Zr1017     O1025   2.386       .  S
Zr1017     O1026   2.375       .  S
Zr1017     O1029   2.395       .  S
Zr1017     O1027   2.386       .  S
O1018      H1038   0.990       .  S
O1018      H1043   0.990       .  S
O1019      H1039   0.990       .  S
Zr1020     O1022   2.437   1_554  S
Zr1020     O1030   2.363   1_554  S
Zr1020     O1028   2.409   1_554  S
O1021      H1037   0.990       .  S
O1022      H1036   0.990       .  S
O1022      H1046   0.990       .  S
Zr1023     O1026   2.433       .  S
Zr1023     O1029   2.420       .  S
Zr1024     O1030   2.398   1_554  S
O1025      H1033   0.965       .  S
O1028      H1032   0.966       .  S
O1029      H1034   0.967       .  S
O1047     Zr1059   2.396       .  S
O1047      C1049   1.281       .  A
O1048     Zr1085   2.533       .  S
O1048      C1049   1.302       .  A
C1049      C1303   1.519       .  S
O1050     Zr1062   2.409       .  S
O1050      C1052   1.274       .  A
O1051     Zr1086   2.483   1_556  S
O1051      C1052   1.294       .  A
C1052      C1471   1.491       .  S
O1053     Zr1062   2.387       .  S
O1053      C1055   1.276       .  A
O1054      C1055   1.295       .  A
C1055      C1571   1.480       .  S
O1056      C1058   1.284       .  A
O1057     Zr1086   2.540       .  S
O1057      C1058   1.304       .  A
Zr1059     O1061   2.435       .  S
Zr1059     O1089   2.363       .  S
Zr1059     O1091   2.361       .  S
O1060      H1103   0.990       .  S
O1061      H1102   0.990       .  S
O1061      H1106   0.990       .  S
Zr1062     O1063   2.439       .  S
Zr1062     O1064   2.434       .  S
Zr1062     O1066   2.367       .  S
Zr1062     O1065   2.368       .  S
Zr1062     O1090   2.373       .  S
Zr1062     O1092   2.349       .  S
O1063      H1104   0.989       .  S
O1063      H1107   0.990       .  S
O1064      H1097   0.991       .  S
O1066     Zr1086   2.384   1_556  S
O1066      H1093   0.965       .  S
O1067     Zr1079   2.403       .  S
O1067      C1069   1.274       .  A
O1068      C1069   1.296       .  A
C1069      C1461   1.476       .  S
O1070     Zr1082   2.568       .  S
O1071     Zr1085   2.393       .  S
O1071      C1072   1.286       .  A
C1072      C1202   1.528   1_545  S
O1073     Zr1082   2.566       .  S
O1073      C1075   1.313   1_556  A
O1074     Zr1086   2.395       .  S
O1074      C1075   1.289       .  A
O1076     Zr1079   2.405       .  S
O1076      C1078   1.270       .  A
O1077     Zr1085   2.473       .  S
O1077      C1078   1.291       .  A
C1078      C1561   1.488       .  S
Zr1079     O1080   2.444       .  S
Zr1079     O1081   2.436       .  S
Zr1079     O1087   2.375       .  S
Zr1079     O1088   2.369       .  S
Zr1079     O1091   2.382       .  S
Zr1079     O1089   2.376       .  S
O1080      H1100   0.990       .  S
O1080      H1105   0.990       .  S
O1081      H1101   0.990       .  S
Zr1082     O1084   2.435       .  S
Zr1082     O1092   2.380       .  S
Zr1082     O1090   2.392       .  S
O1083      H1099   0.990       .  S
O1084      H1098   0.990       .  S
O1084      H1108   0.990       .  S
Zr1085     O1088   2.417       .  S
Zr1085     O1091   2.400       .  S
Zr1086     O1092   2.408   1_554  S
O1087      H1095   0.964       .  S
O1090      H1094   0.966       .  S
O1091      H1096   0.966       .  S
O1109     Zr1121   2.419       .  S
O1109      C1111   1.286       .  A
O1110     Zr1147   2.549       .  S
O1110      C1111   1.306       .  A
C1111      C1179   1.530       .  S
O1112     Zr1124   2.403       .  S
O1112      C1114   1.269       .  A
O1113     Zr1148   2.465       .  S
O1113      C1114   1.287       .  A
C1114      C1511   1.488       .  S
O1115     Zr1124   2.402       .  S
O1115      C1117   1.268       .  A
O1116      C1117   1.295       .  A
C1117      C1528   1.472       .  S
O1118      C1120   1.287       .  A
O1119     Zr1148   2.515       .  S
O1119      C1120   1.298       .  A
Zr1121     O1123   2.431       .  S
Zr1121     O1151   2.372       .  S
Zr1121     O1153   2.370       .  S
O1122      H1165   0.990       .  S
O1123      H1164   0.990       .  S
O1123      H1168   0.989       .  S
Zr1124     O1125   2.436       .  S
Zr1124     O1126   2.436       .  S
Zr1124     O1128   2.393       .  S
Zr1124     O1127   2.385       .  S
Zr1124     O1152   2.386       .  S
Zr1124     O1154   2.374       .  S
O1125      H1166   0.990       .  S
O1125      H1169   0.989       .  S
O1126      H1159   0.990       .  S
O1128     Zr1148   2.417       .  S
O1128      H1155   0.967       .  S
O1129     Zr1141   2.387       .  S
O1129      C1131   1.276       .  A
O1130      C1131   1.298       .  A
C1131      C1501   1.488       .  S
O1132     Zr1144   2.579       .  S
O1133     Zr1147   2.408       .  S
O1133      C1134   1.291       .  A
C1134      C1326   1.525   1_565  S
O1135     Zr1144   2.561       .  S
O1135      C1137   1.310       .  A
O1136     Zr1148   2.379       .  S
O1136      C1137   1.284       .  A
O1138     Zr1141   2.414       .  S
O1138      C1140   1.275       .  A
O1139     Zr1147   2.484       .  S
O1139      C1140   1.292       .  A
C1140      C1521   1.487       .  S
Zr1141     O1142   2.441       .  S
Zr1141     O1143   2.440       .  S
Zr1141     O1149   2.381       .  S
Zr1141     O1150   2.348       .  S
Zr1141     O1153   2.359       .  S
Zr1141     O1151   2.364       .  S
O1142      H1162   0.990       .  S
O1142      H1167   0.990       .  S
O1143      H1163   0.990       .  S
Zr1144     O1146   2.433       .  S
Zr1144     O1154   2.385       .  S
Zr1144     O1152   2.382       .  S
O1145      H1161   0.990       .  S
O1146      H1160   0.990       .  S
O1146      H1170   0.990       .  S
Zr1147     O1150   2.402       .  S
Zr1147     O1153   2.391       .  S
Zr1148     O1154   2.434       .  S
O1149      H1157   0.966       .  S
O1152      H1156   0.964       .  S
O1153      H1158   0.964       .  S
O1171     Zr1183   2.410       .  S
O1171      C1173   1.274       .  A
O1172      C1173   1.296       .  A
C1173      C1551   1.491       .  S
O1174      C1176   1.281       .  A
O1175     Zr1210   2.518       .  S
O1175      C1176   1.299       .  A
C1176      C1244   1.509       .  S
O1177     Zr1186   2.410       .  S
O1177      C1179   1.285       .  A
O1178     Zr1209   2.547       .  S
O1178      C1179   1.305       .  A
O1180     Zr1183   2.404       .  S
O1180      C1182   1.268       .  A
O1181     Zr1210   2.466       .  S
O1181      C1182   1.285       .  A
C1182      C1411   1.483       .  S
Zr1183     O1184   2.435       .  S
Zr1183     O1185   2.440       .  S
Zr1183     O1189   2.374       .  S
Zr1183     O1190   2.392       .  S
Zr1183     O1213   2.373       .  S
Zr1183     O1215   2.381       .  S
O1184      H1227   0.990       .  S
O1185      H1226   0.990       .  S
O1185      H1230   0.990       .  S
Zr1186     O1188   2.430       .  S
Zr1186     O1214   2.350       .  S
Zr1186     O1216   2.365       .  S
O1187      H1228   0.990       .  S
O1187      H1231   0.990       .  S
O1188      H1221   0.990       .  S
O1190     Zr1210   2.415       .  S
O1190      H1217   0.967       .  S
O1191     Zr1203   2.569       .  S
O1191      C1193   1.312   1_556  A
O1192     Zr1210   2.404   1_554  S
O1192      C1193   1.288       .  A
O1194     Zr1206   2.409       .  S
O1194      C1196   1.270       .  A
O1195     Zr1209   2.458       .  S
O1195      C1196   1.284       .  A
C1196      C1541   1.477       .  S
O1197     Zr1206   2.410       .  S
O1197      C1199   1.281       .  A
O1198      C1199   1.301       .  A
C1199      C1401   1.510       .  S
O1200     Zr1203   2.554       .  S
O1201     Zr1209   2.427       .  S
O1201      C1202   1.295       .  A
Zr1203     O1205   2.435       .  S
Zr1203     O1215   2.409       .  S
Zr1203     O1213   2.375       .  S
O1204      H1224   0.990       .  S
O1204      H1229   0.990       .  S
O1205      H1225   0.990       .  S
Zr1206     O1207   2.434       .  S
Zr1206     O1208   2.437       .  S
Zr1206     O1212   2.358       .  S
Zr1206     O1211   2.370       .  S
Zr1206     O1216   2.366       .  S
Zr1206     O1214   2.378       .  S
O1207      H1223   0.990       .  S
O1208      H1222   0.990       .  S
O1208      H1232   0.990       .  S
Zr1209     O1212   2.423       .  S
Zr1209     O1214   2.404       .  S
Zr1210     O1213   2.426       .  S
O1211      H1219   0.966       .  S
O1214      H1218   0.965       .  S
O1215      H1220   0.967       .  S
O1233     Zr1245   2.393       .  S
O1233      C1235   1.281       .  A
O1234     Zr1271   2.539       .  S
O1234      C1235   1.304       .  A
O1236     Zr1248   2.392       .  S
O1236      C1238   1.265       .  A
O1237     Zr1272   2.481       .  S
O1237      C1238   1.287       .  A
C1238      C1431   1.486       .  S
O1239     Zr1248   2.393       .  S
O1239      C1241   1.267       .  A
O1240      C1241   1.294       .  A
C1241      C1491   1.479       .  S
O1242      C1244   1.283       .  A
O1243     Zr1272   2.510       .  S
O1243      C1244   1.297       .  A
Zr1245     O1247   2.432       .  S
Zr1245     O1275   2.361       .  S
Zr1245     O1277   2.351       .  S
O1246      H1289   0.990       .  S
O1247      H1288   0.988       .  S
O1247      H1292   0.990       .  S
Zr1248     O1249   2.438       .  S
Zr1248     O1250   2.434       .  S
Zr1248     O1252   2.392       .  S
Zr1248     O1251   2.373       .  S
Zr1248     O1276   2.380       .  S
Zr1248     O1278   2.372       .  S
O1249      H1290   0.990       .  S
O1249      H1293   0.990       .  S
O1250      H1283   0.990       .  S
O1252     Zr1272   2.412       .  S
O1252      H1279   0.966       .  S
O1253     Zr1265   2.399       .  S
O1253      C1255   1.277       .  A
O1254      C1255   1.296       .  A
C1255      C1421   1.485       .  S
O1256     Zr1268   2.559       .  S
O1257     Zr1271   2.390       .  S
O1257      C1258   1.288       .  A
O1259     Zr1268   2.563       .  S
O1259      C1261   1.310       .  A
O1260     Zr1272   2.402   1_554  S
O1260      C1261   1.288       .  A
C1261      C1317   1.521       .  S
O1262     Zr1265   2.411       .  S
O1262      C1264   1.273       .  A
O1263     Zr1271   2.466       .  S
O1263      C1264   1.288       .  A
C1264      C1481   1.486       .  S
Zr1265     O1266   2.442       .  S
Zr1265     O1267   2.437       .  S
Zr1265     O1273   2.378       .  S
Zr1265     O1274   2.356       .  S
Zr1265     O1277   2.370       .  S
Zr1265     O1275   2.371       .  S
O1266      H1286   0.990       .  S
O1266      H1291   0.990       .  S
O1267      H1287   0.990       .  S
Zr1268     O1270   2.434   1_554  S
Zr1268     O1278   2.377   1_554  S
Zr1268     O1276   2.389   1_554  S
O1269      H1285   0.990       .  S
O1270      H1284   0.990       .  S
O1270      H1294   0.990       .  S
Zr1271     O1274   2.421       .  S
Zr1271     O1277   2.393       .  S
Zr1272     O1278   2.421       .  S
O1273      H1281   0.965       .  S
O1276      H1280   0.966       .  S
O1277      H1282   0.967       .  S
O1295     Zr1307   2.395       .  S
O1295      C1297   1.278       .  A
O1296      C1297   1.297       .  A
C1297      C1588   1.493       .  S
O1298      C1300   1.286       .  A
O1299     Zr1334   2.552       .  S
O1299      C1300   1.306       .  A
O1301     Zr1310   2.408       .  S
O1301      C1303   1.284       .  A
O1302     Zr1333   2.523       .  S
O1302      C1303   1.299       .  A
O1304     Zr1307   2.409       .  S
O1304      C1306   1.271       .  A
O1305     Zr1334   2.455   1_556  S
O1305      C1306   1.284       .  A
C1306      C1371   1.470       .  S
Zr1307     O1308   2.439       .  S
Zr1307     O1309   2.439       .  S
Zr1307     O1313   2.365       .  S
Zr1307     O1314   2.370       .  S
Zr1307     O1337   2.351       .  S
Zr1307     O1339   2.382       .  S
O1308      H1351   0.990       .  S
O1309      H1350   0.990       .  S
O1309      H1354   0.990       .  S
Zr1310     O1312   2.436       .  S
Zr1310     O1338   2.357       .  S
Zr1310     O1340   2.368       .  S
O1311      H1352   0.990       .  S
O1311      H1355   0.990       .  S
O1312      H1345   0.990       .  S
O1314     Zr1334   2.390   1_556  S
O1314      H1341   0.965       .  S
O1315     Zr1327   2.567       .  S
O1315      C1317   1.312       .  A
O1316     Zr1334   2.408       .  S
O1316      C1317   1.291       .  A
O1318     Zr1330   2.402       .  S
O1318      C1320   1.267       .  A
O1319     Zr1333   2.461       .  S
O1319      C1320   1.284       .  A
C1320      C1581   1.483       .  S
O1321     Zr1330   2.404       .  S
O1321      C1323   1.276       .  A
O1322      C1323   1.296       .  A
C1323      C1361   1.480       .  S
O1324     Zr1327   2.573   1_556  S
O1325     Zr1333   2.408       .  S
O1325      C1326   1.289       .  A
Zr1327     O1329   2.433   1_554  S
Zr1327     O1339   2.411   1_554  S
Zr1327     O1337   2.373   1_554  S
O1328      H1348   0.990       .  S
O1328      H1353   0.990       .  S
O1329      H1349   0.990       .  S
Zr1330     O1331   2.435       .  S
Zr1330     O1332   2.436       .  S
Zr1330     O1336   2.371       .  S
Zr1330     O1335   2.372       .  S
Zr1330     O1340   2.380       .  S
Zr1330     O1338   2.391       .  S
O1331      H1347   0.990       .  S
O1332      H1346   0.990       .  S
O1332      H1356   0.990       .  S
Zr1333     O1336   2.432       .  S
Zr1333     O1338   2.418       .  S
Zr1334     O1337   2.412   1_554  S
O1335      H1343   0.965       .  S
O1338      H1342   0.966       .  S
O1339      H1344   0.966       .  S
C1357      C1358   1.402       .  A
C1357      C1362   1.408       .  A
C1357      H1363   1.083       .  S
C1358      C1359   1.417       .  A
C1359      C1360   1.391       .  A
C1359      H1364   1.083       .  S
C1360      C1361   1.394       .  A
C1360      H1365   1.084       .  S
C1361      C1362   1.416       .  A
C1362      H1366   1.083       .  S
C1367      C1368   1.406       .  A
C1367      C1372   1.395       .  A
C1367      H1373   1.081       .  S
C1368      C1369   1.399       .  A
C1369      C1370   1.400       .  A
C1369      H1374   1.083       .  S
C1370      C1371   1.410       .  A
C1370      H1375   1.083       .  S
C1371      C1372   1.398       .  A
C1372      H1376   1.083       .  S
C1377      C1378   1.401       .  A
C1377      C1382   1.405       .  A
C1377      H1383   1.083       .  S
C1378      C1379   1.414       .  A
C1379      C1380   1.387       .  A
C1379      H1384   1.083       .  S
C1380      C1381   1.394       .  A
C1380      H1385   1.084       .  S
C1381      C1382   1.413       .  A
C1382      H1386   1.083       .  S
C1387      C1388   1.415       .  A
C1387      C1392   1.394       .  A
C1387      H1393   1.082       .  S
C1388      C1389   1.395       .  A
C1389      C1390   1.398       .  A
C1389      H1394   1.083       .  S
C1390      C1391   1.416       .  A
C1390      H1395   1.082       .  S
C1391      C1392   1.394       .  A
C1392      H1396   1.083       .  S
C1397      C1398   1.399       .  A
C1397      C1402   1.399       .  A
C1397      H1403   1.083       .  S
C1398      C1399   1.419       .  A
C1399      C1400   1.415       .  A
C1399      H1404   1.082       .  S
C1400      C1401   1.406       .  A
C1400      H1405   1.083       .  S
C1401      C1402   1.418       .  A
C1402      H1406   1.082       .  S
C1407      C1408   1.406       .  A
C1407      C1412   1.408       .  A
C1407      H1413   1.083       .  S
C1408      C1409   1.413       .  A
C1409      C1410   1.400       .  A
C1409      H1414   1.082       .  S
C1410      C1411   1.399       .  A
C1410      H1415   1.083       .  S
C1411      C1412   1.410       .  A
C1412      H1416   1.083       .  S
C1417      C1418   1.418       .  A
C1417      C1422   1.403       .  A
C1417      H1423   1.083       .  S
C1418      C1419   1.398       .  A
C1419      C1420   1.398       .  A
C1419      H1424   1.083       .  S
C1420      C1421   1.415       .  A
C1420      H1425   1.083       .  S
C1421      C1422   1.398       .  A
C1422      H1426   1.083       .  S
C1427      C1428   1.412       .  A
C1427      C1432   1.400       .  A
C1427      H1433   1.084       .  S
C1428      C1429   1.405       .  A
C1429      C1430   1.408       .  A
C1429      H1434   1.083       .  S
C1430      C1431   1.411       .  A
C1430      H1435   1.083       .  S
C1431      C1432   1.401       .  A
C1432      H1436   1.082       .  S
C1437      C1438   1.398       .  A
C1437      C1442   1.393       .  A
C1437      H1443   1.083       .  S
C1438      C1439   1.412       .  A
C1439      C1440   1.411       .  A
C1439      H1444   1.083       .  S
C1440      C1441   1.404       .  A
C1440      H1445   1.082       .  S
C1441      C1442   1.415       .  A
C1442      H1446   1.083       .  S
C1447      C1448   1.419       .  A
C1447      C1452   1.404       .  A
C1447      H1453   1.082       .  S
C1448      C1449   1.393       .  A
C1449      C1450   1.392       .  A
C1449      H1454   1.083       .  S
C1450      C1451   1.418       .  A
C1450      H1455   1.081       .  S
C1451      C1452   1.398       .  A
C1452      H1456   1.083       .  S
C1457      C1458   1.397       .  A
C1457      C1462   1.404       .  A
C1457      H1463   1.083       .  S
C1458      C1459   1.418       .  A
C1459      C1460   1.389       .  A
C1459      H1464   1.083       .  S
C1460      C1461   1.393       .  A
C1460      H1465   1.084       .  S
C1461      C1462   1.417       .  A
C1462      H1466   1.083       .  S
C1467      C1468   1.400       .  A
C1467      C1472   1.402       .  A
C1467      H1473   1.083       .  S
C1468      C1469   1.414       .  A
C1469      C1470   1.402       .  A
C1469      H1474   1.081       .  S
C1470      C1471   1.400       .  A
C1470      H1475   1.083       .  S
C1471      C1472   1.416       .  A
C1472      H1476   1.082       .  S
C1477      C1478   1.412       .  A
C1477      C1482   1.400       .  A
C1477      H1483   1.081       .  S
C1478      C1479   1.398       .  A
C1479      C1480   1.402       .  A
C1479      H1484   1.083       .  S
C1480      C1481   1.414       .  A
C1480      H1485   1.083       .  S
C1481      C1482   1.400       .  A
C1482      H1486   1.083       .  S
C1487      C1488   1.402       .  A
C1487      C1492   1.405       .  A
C1487      H1493   1.083       .  S
C1488      C1489   1.413       .  A
C1489      C1490   1.398       .  A
C1489      H1494   1.082       .  S
C1490      C1491   1.399       .  A
C1490      H1495   1.084       .  S
C1491      C1492   1.412       .  A
C1492      H1496   1.083       .  S
C1497      C1498   1.395       .  A
C1497      C1502   1.394       .  A
C1497      H1503   1.083       .  S
C1498      C1499   1.420       .  A
C1499      C1500   1.405       .  A
C1499      H1504   1.082       .  S
C1500      C1501   1.398       .  A
C1500      H1505   1.083       .  S
C1501      C1502   1.417       .  A
C1502      H1506   1.082       .  S
C1507      C1508   1.407       .  A
C1507      C1512   1.413       .  A
C1507      H1513   1.083       .  S
C1508      C1509   1.414       .  A
C1509      C1510   1.394       .  A
C1509      H1514   1.081       .  S
C1510      C1511   1.398       .  A
C1510      H1515   1.083       .  S
C1511      C1512   1.413       .  A
C1512      H1516   1.083       .  S
C1517      C1518   1.397       .  A
C1517      C1522   1.399       .  A
C1517      H1523   1.083       .  S
C1518      C1519   1.417       .  A
C1519      C1520   1.400       .  A
C1519      H1524   1.082       .  S
C1520      C1521   1.398       .  A
C1520      H1525   1.083       .  S
C1521      C1522   1.416       .  A
C1522      H1526   1.082       .  S
C1527      C1528   1.408       .  A
C1527      C1532   1.406       .  A
C1527      H1533   1.083       .  S
C1528      C1529   1.398       .  A
C1529      C1530   1.396       .  A
C1529      H1534   1.084       .  S
C1530      C1531   1.409       .  A
C1530      H1535   1.084       .  S
C1531      C1532   1.406       .  A
C1532      H1536   1.083       .  S
C1537      C1538   1.398       .  A
C1537      C1542   1.399       .  A
C1537      H1543   1.083       .  S
C1538      C1539   1.409       .  A
C1539      C1540   1.401       .  A
C1539      H1544   1.082       .  S
C1540      C1541   1.401       .  A
C1540      H1545   1.083       .  S
C1541      C1542   1.410       .  A
C1542      H1546   1.083       .  S
C1547      C1548   1.402       .  A
C1547      C1552   1.406       .  A
C1547      H1553   1.083       .  S
C1548      C1549   1.416       .  A
C1549      C1550   1.400       .  A
C1549      H1554   1.083       .  S
C1550      C1551   1.400       .  A
C1550      H1555   1.083       .  S
C1551      C1552   1.415       .  A
C1552      H1556   1.083       .  S
C1557      C1558   1.418       .  A
C1557      C1562   1.391       .  A
C1557      H1563   1.083       .  S
C1558      C1559   1.403       .  A
C1559      C1560   1.413       .  A
C1559      H1564   1.082       .  S
C1560      C1561   1.418       .  A
C1560      H1565   1.083       .  S
C1561      C1562   1.393       .  A
C1562      H1566   1.083       .  S
C1567      C1568   1.418       .  A
C1567      C1572   1.401       .  A
C1567      H1573   1.081       .  S
C1568      C1569   1.395       .  A
C1569      C1570   1.395       .  A
C1569      H1574   1.083       .  S
C1570      C1571   1.415       .  A
C1570      H1575   1.083       .  S
C1571      C1572   1.396       .  A
C1572      H1576   1.083       .  S
C1577      C1578   1.417       .  A
C1577      C1582   1.396       .  A
C1577      H1583   1.083       .  S
C1578      C1579   1.404       .  A
C1579      C1580   1.409       .  A
C1579      H1584   1.082       .  S
C1580      C1581   1.412       .  A
C1580      H1585   1.083       .  S
C1581      C1582   1.397       .  A
C1582      H1586   1.083       .  S
C1587      C1588   1.417       .  A
C1587      C1592   1.395       .  A
C1587      H1593   1.082       .  S
C1588      C1589   1.401       .  A
C1589      C1590   1.406       .  A
C1589      H1594   1.083       .  S
C1590      C1591   1.419       .  A
C1590      H1595   1.081       .  S
C1591      C1592   1.395       .  A
C1592      H1596   1.083       .  S
