geometry optimzed in LAMMPS
_audit_creation_date              2020-11-30 
_audit_creation_method            'lammps2cif' 
_symmetry_space_group_name_H-M    'P1' 
_symmetry_Int_Tables_number       1 
_symmetry_cell_setting            triclinic 
loop_ 
_symmetry_equiv_pos_as_xyz 
  x,y,z 
_cell_length_a                    30.77271987 
_cell_length_b                    30.443859523391556 
_cell_length_c                    48.59647053719216 
_cell_angle_alpha                 89.75299448996282 
_cell_angle_beta                  89.69299262833734 
_cell_angle_gamma                 120.3844072869623 
loop_ 
_atom_site_label 
_atom_site_type_symbol 
_atom_site_fract_x 
_atom_site_fract_y 
_atom_site_fract_z 
_atom_site_charge 
O1          O  0.44278615  0.08737169  0.29053937    -0.75500
O2          O  0.45054260  0.03161896  0.31858594    -0.54400
C3          C  0.44316900  0.06894584  0.31451121     0.78200
O4          O  0.36561750  0.90032425  0.18338033    -0.60100
O5          O  0.43498515  0.95850063  0.15945513    -0.53100
C6          C  0.38932286  0.92182648  0.16058401     0.70200
O7          O  0.34231198  0.87902124  0.27841742    -0.74700
O8          O  0.39742573  0.92673011  0.31174826    -0.55200
C9          C  0.35496012  0.89071725  0.30380476     0.76200
O10         O  0.43899774  0.08664796  0.19523997    -0.59800
O11         O  0.47721736  0.05675502  0.16711653    -0.52900
C12         C  0.45142986  0.07833496  0.17116991     0.72800
Zr13       Zr  0.45468864  0.06688548  0.24264067     2.54700
O14         O  0.37360692  0.06288042  0.24479490    -0.80400
O15         O  0.50136738  0.15945688  0.23939135    -0.93800
Zr16       Zr  0.38555383  0.91428329  0.23369206     2.64700
O17         O  0.30764276  0.91673028  0.23250247    -0.98800
O18         O  0.33922466  0.82211797  0.22874157    -0.80800
O19         O  0.41923789  0.98590664  0.26038931    -0.84200
O20         O  0.42287172  0.99556169  0.21279503    -2.18900
O21         O  0.63542717  0.10175876  0.20418135    -0.67600
O22         O  0.57601215  0.06149051  0.17140092    -0.52100
C23         C  0.62144477  0.09068146  0.17878080     0.71200
O24         O  0.55077375  0.92769305  0.28857894    -0.60500
O25         O  0.48334171  0.91734831  0.31041672    -0.52500
C26         C  0.52659652  0.92260467  0.31136359     0.73000
O27         O  0.55654174  0.92902268  0.19171031    -0.71900
O28         O  0.50631206  0.94526840  0.16632088    -0.50500
C29         C  0.54263215  0.93729249  0.16794671     0.74400
O30         O  0.61066030  0.07641611  0.29943377    -0.67200
O31         O  0.53923064  0.02246665  0.32284824    -0.54400
C32         C  0.58616967  0.05488891  0.32205981     0.72800
Zr33       Zr  0.58893686  0.07432967  0.24940967     2.77500
O34         O  0.67466056  0.09231349  0.25660051    -0.97900
O35         O  0.61882057  0.16463807  0.25481405    -0.78800
Zr36       Zr  0.52148114  0.92351584  0.23992989     2.70100
O37         O  0.57942702  0.89132235  0.24245339    -0.80000
O38         O  0.46789300  0.83134830  0.23670808    -0.99100
Zr39       Zr  0.47443599  0.98322819  0.28972114     2.21500
Zr40       Zr  0.49769140  0.00457428  0.19345405     2.11100
O41         O  0.56437241  0.00508597  0.21876805    -2.47800
O42         O  0.54316133  0.99349390  0.26634881    -0.79800
O43         O  0.52455356  0.07010599  0.22339013    -0.72000
O44         O  0.44533644  0.90877785  0.26222499    -2.33000
O45         O  0.51720733  0.06792335  0.27211632    -2.29200
O46         O  0.46057916  0.92856076  0.21557836    -0.73800
H47         H  0.39948380  0.99499144  0.19946984     0.78200
H48         H  0.42908596  0.87711644  0.27248593     0.79300
H49         H  0.59340238  0.01006423  0.20850858     0.81500
H50         H  0.52812867  0.09336591  0.28630001     0.79200
H51         H  0.30338530  0.81278758  0.22831577     0.42200
H52         H  0.43296510  0.82477483  0.23609565     0.41200
H53         H  0.61329960  0.92224429  0.24255929     0.40800
H54         H  0.67904833  0.07003127  0.24347971     0.38800
H55         H  0.62875084  0.17147005  0.27437749     0.41900
H56         H  0.53290544  0.16787487  0.22952083     0.36700
H57         H  0.35873503  0.04712029  0.26285371     0.42800
H58         H  0.31388615  0.94355624  0.21884889     0.39200
H59         H  0.69644386  0.12722981  0.24923660     0.44100
H60         H  0.51207667  0.17097827  0.25847212     0.42900
H61         H  0.28301413  0.88451284  0.22356856     0.43000
H62         H  0.47428171  0.82341693  0.21789684     0.43400
O63         O  0.09525013  0.65483956  0.29688939    -0.75500
O64         O  0.07261819  0.58645504  0.32461537    -0.54400
C65         C  0.08899259  0.63382239  0.32092162     0.78200
O66         O  0.90346574  0.55241554  0.21426314    -0.60100
O67         O  0.94798145  0.54085914  0.18033796    -0.53100
C68         C  0.91400537  0.54993637  0.18858222     0.70200
O69         O  0.93663775  0.56093783  0.31063351    -0.74700
O70         O  0.98418413  0.53490128  0.33200373    -0.55200
C71         C  0.95582158  0.55352694  0.33281934     0.76200
O72         O  0.11070329  0.65401211  0.20175016    -0.59800
O73         O  0.05368812  0.59266580  0.17357381    -0.52900
C74         C  0.09155846  0.63706322  0.17787834     0.72800
Zr75       Zr  0.08880927  0.62098144  0.24944170     2.54700
O76         O  0.10157592  0.70630010  0.24389672    -0.80400
O77         O  0.17994946  0.66114665  0.25321868    -0.93800
Zr78       Zr  0.93841189  0.54491768  0.25955506     2.64700
O79         O  0.93683977  0.62368708  0.26436885    -0.98800
O80         O  0.84795078  0.49665974  0.26813216    -0.80800
O81         O  0.01788674  0.57534778  0.27533041    -0.84200
O82         O  0.00841962  0.58744271  0.22841719    -2.18900
O83         O  0.09492023  0.47356269  0.19114015    -0.67600
O84         O  0.03991991  0.48983040  0.16875640    -0.52100
C85         C  0.07236839  0.47545909  0.16897509     0.71200
O86         O  0.91978302  0.37728327  0.29948451    -0.60500
O87         O  0.97384950  0.44160671  0.32717479    -0.52500
C88         C  0.93757864  0.39628356  0.32346843     0.73000
O89         O  0.92219089  0.38126232  0.20213568    -0.71900
O90         O  0.93214794  0.44971901  0.18023429    -0.50500
C91         C  0.92564498  0.40524950  0.17939387     0.74400
O92         O  0.11494437  0.47111852  0.28668013    -0.67200
O93         O  0.07980067  0.49523227  0.32024099    -0.54400
C94         C  0.10745826  0.47779930  0.31220646     0.72800
Zr95       Zr  0.08751005  0.48821209  0.24153473     2.77500
O96         O  0.08728360  0.40826502  0.23765775    -0.97900
O97         O  0.17798288  0.53844143  0.23338012    -0.78800
Zr98       Zr  0.93584357  0.41148872  0.25116063     2.70100
O99         O  0.91940693  0.32445825  0.25296841    -0.80000
O100        O  0.84505508  0.37608704  0.24974941    -0.99100
Zr101      Zr  0.02290819  0.51307391  0.29766906     2.21500
Zr102      Zr  0.00292880  0.51916245  0.20196500     2.11100
O103        O  0.00729209  0.44922222  0.22102144    -2.47800
O104        O  0.01608396  0.45220794  0.26856726    -0.79800
O105        O  0.07769002  0.55282461  0.22387101    -0.72000
O106        O  0.93898260  0.47486177  0.28125187    -2.33000
O107        O  0.09818770  0.55557351  0.27110961    -2.29200
O108        O  0.93885288  0.48278460  0.23315886    -0.73800
H109        H  0.00654723  0.61278347  0.21727443     0.79700
H110        H  0.91381594  0.46061748  0.29569872     0.79300
H111        H  0.00679322  0.42507322  0.20810722     0.81500
H112        H  0.12813995  0.56916483  0.28221605     0.79200
H113        H  0.84281531  0.51311709  0.28436852     0.42200
H114        H  0.83224942  0.35457006  0.26653983     0.41200
H115        H  0.88220851  0.30306353  0.25260644     0.40800
H116        H  0.07995568  0.39324879  0.25637517     0.38800
H117        H  0.19221251  0.55360229  0.25146605     0.41900
H118        H  0.19337381  0.68865384  0.23916043     0.36700
H119        H  0.07183377  0.70153366  0.23359603     0.42800
H120        H  0.96359717  0.64811021  0.25172053     0.39200
H121        H  0.05627749  0.38577413  0.22731268     0.44100
H122        H  0.18792821  0.63579589  0.24579459     0.42900
H123        H  0.90496367  0.61662299  0.25563086     0.43000
H124        H  0.84029925  0.40529189  0.25357124     0.43400
O125        O  0.53249942  0.63158912  0.28924123    -0.75500
O126        O  0.48911130  0.56929161  0.32096806    -0.54400
C127        C  0.51856216  0.61598649  0.31425682     0.78200
O128        O  0.36861567  0.42908853  0.19712939    -0.60100
O129        O  0.43552750  0.43106092  0.17661989    -0.53100
C130        C  0.39157465  0.42467411  0.17564615     0.70200
O131        O  0.34301118  0.42783774  0.29394713    -0.74700
O132        O  0.40529943  0.46516804  0.32549741    -0.55200
C133        C  0.35888065  0.44012100  0.31905420     0.76200
O134        O  0.51844067  0.60411322  0.19487597    -0.59800
O135        O  0.51103327  0.53530631  0.17247535    -0.52900
C136        C  0.51625750  0.57973435  0.17264740     0.72800
Zr137      Zr  0.51230096  0.58450222  0.24511981     2.54700
O138        O  0.45817754  0.62133611  0.24642477    -0.80400
O139        O  0.58479786  0.66567702  0.23125999    -0.93800
Zr140      Zr  0.38698364  0.44429660  0.24778875     2.64700
O141        O  0.33838216  0.48692915  0.24359080    -0.98800
O142        O  0.31109887  0.36179915  0.24210364    -0.80800
O143        O  0.44728001  0.51733247  0.26863440    -0.84200
O144        O  0.45245201  0.51079871  0.22089438    -2.18900
O145        O  0.64244578  0.54322022  0.21813862    -0.67600
O146        O  0.58145112  0.51120131  0.18559305    -0.52100
C147        C  0.62735075  0.53441009  0.19288492     0.71200
O148        O  0.46271426  0.36318982  0.31404108    -0.60500
O149        O  0.47479442  0.43393841  0.33646368    -0.52500
C150        C  0.46553958  0.38806307  0.33617616     0.73000
O151        O  0.45269109  0.34166518  0.21763804    -0.71900
O152        O  0.50281907  0.40398646  0.18767085    -0.50500
C153        C  0.47061225  0.35768157  0.19311529     0.74400
O154        O  0.61372890  0.53596356  0.31444501    -0.67200
O155        O  0.54696925  0.53526575  0.33402316    -0.54400
C156        C  0.59094785  0.54220049  0.33545291     0.72800
Zr157      Zr  0.59762779  0.52155734  0.26339044     2.77500
O158        O  0.64442964  0.47742276  0.26966116    -0.97900
O159        O  0.67534432  0.60256574  0.26931352    -0.78800
Zr160      Zr  0.47396351  0.38318517  0.26380059     2.70100
O161        O  0.53276730  0.35200226  0.26631425    -0.80000
O162        O  0.40774182  0.29528558  0.27232195    -0.99100
Zr163      Zr  0.48247962  0.49354956  0.30194119     2.21500
Zr164      Zr  0.50257643  0.47524689  0.20754801     2.11100
O165        O  0.54393725  0.44657655  0.23792170    -2.47800
O166        O  0.52703030  0.45894181  0.28472212    -0.79800
O167        O  0.55457071  0.54350065  0.23307167    -0.72000
O168        O  0.42309694  0.41524197  0.28134327    -2.33000
O169        O  0.55297499  0.56067738  0.27869127    -2.29200
O170        O  0.43976259  0.41588173  0.23437711    -0.73800
H171        H  0.43814126  0.51957591  0.20569893     0.78200
H172        H  0.39858342  0.39066835  0.29408006     0.79300
H173        H  0.56263241  0.43340684  0.22849405     0.81500
H174        H  0.57619453  0.58827763  0.29010459     0.79200
H175        H  0.32187009  0.33682517  0.24610276     0.42200
H176        H  0.39194723  0.28170537  0.25429349     0.41200
H177        H  0.56134195  0.37795972  0.27711851     0.40800
H178        H  0.68017219  0.50492264  0.27018043     0.38800
H179        H  0.70212099  0.59736668  0.26142195     0.41900
H180        H  0.61250800  0.66934503  0.24310098     0.36700
H181        H  0.48170189  0.65841206  0.24822186     0.42800
H182        H  0.30336106  0.45893144  0.24073231     0.39200
H183        H  0.63659529  0.46423171  0.28879206     0.44100
H184        H  0.57713037  0.69164594  0.23806894     0.42900
H185        H  0.33807592  0.49953883  0.26229613     0.43000
H186        H  0.42596675  0.27707223  0.27663263     0.43400
O187        O  0.78381337  0.43459636  0.01922783    -0.75500
O188        O  0.86728253  0.48797372  0.01108344    -0.54400
C189        C  0.82831707  0.44234354  0.01399180     0.78200
O190        O  0.71578427  0.56829651  0.43766744    -0.60100
O191        O  0.66419210  0.57834185  0.46717416    -0.53100
C192        C  0.68018631  0.57700868  0.44263284     0.70200
O193        O  0.84746250  0.56284717  0.43680366    -0.74700
O194        O  0.90951972  0.57699290  0.46684067    -0.55200
C195        C  0.89206664  0.57302135  0.44209707     0.76200
O196        O  0.64089315  0.43607469  0.52377883    -0.59800
O197        O  0.61178707  0.48994308  0.51491045    -0.52900
C198        C  0.60424903  0.44429527  0.51936068     0.72800
Zr199      Zr  0.72964720  0.47079306  0.02550978     2.54700
O200        O  0.68898617  0.38465646  0.50798513    -0.80400
O201        O  0.71227716  0.43103024  0.07093323    -0.93800
Zr202      Zr  0.77458249  0.55192280  0.45987648     2.64700
O203        O  0.73270667  0.46035264  0.45216127    -0.98800
O204        O  0.77543899  0.55421335  0.40970804    -0.80800
O205        O  0.79695267  0.50990918  0.49202743    -0.84200
O206        O  0.70743587  0.50970017  0.49109904    -2.18900
O207        O  0.74142053  0.62908062  0.08123294    -0.67600
O208        O  0.66688996  0.57572264  0.06283142    -0.52100
C209        C  0.69478496  0.59861619  0.08395609     0.71200
O210        O  0.93759882  0.71950500  0.49993820    -0.60500
O211        O  0.94786004  0.65193721  0.00915418    -0.52500
C212        C  0.96472569  0.69960328  0.00433213     0.73000
O213        O  0.77413510  0.71700321  0.49804989    -0.71900
O214        O  0.69415242  0.65159218  0.50825010    -0.50500
C215        C  0.72491043  0.69863485  0.50173979     0.74400
O216        O  0.88319303  0.63014899  0.07259033    -0.67200
O217        O  0.90428754  0.57488290  0.05859881    -0.54400
C218        C  0.89780081  0.59900163  0.07841255     0.72800
Zr219      Zr  0.79449264  0.59697078  0.06827977     2.77500
O220        O  0.81321431  0.64532618  0.11061364    -0.97900
O221        O  0.76904476  0.53167525  0.10391854    -0.78800
Zr222      Zr  0.83925463  0.68398052  0.50158554     2.70100
O223        O  0.87175367  0.75722967  0.03134314    -0.80000
O224        O  0.86569137  0.73594905  0.45989890    -0.99100
Zr225      Zr  0.86917006  0.57225012  0.01247032     2.21500
Zr226      Zr  0.69566747  0.57323467  0.51328866     2.11100
O227        O  0.77108816  0.63839306  0.03444650    -2.47800
O228        O  0.85849576  0.63817907  0.03424315    -0.79800
O229        O  0.71808854  0.53248581  0.04858131    -0.72000
O230        O  0.84882400  0.61831789  0.48042738    -2.33000
O231        O  0.80379487  0.53220059  0.04698809    -2.29200
O232        O  0.76447227  0.61657841  0.48072137    -0.73800
H233        H  0.67792456  0.48576485  0.48104791     0.78200
H234        H  0.87505130  0.63654184  0.46690846     0.79300
H235        H  0.76673368  0.66572576  0.04110637     0.81500
H236        H  0.81163827  0.51436797  0.06054551     0.79200
H237        H  0.74704101  0.52096783  0.40383801     0.42200
H238        H  0.88426725  0.77140289  0.46666107     0.41200
H239        H  0.86835990  0.78314466  0.02071867     0.40800
H240        H  0.82686773  0.63012268  0.12343080     0.38800
H241        H  0.75225888  0.54095863  0.11827948     0.41900
H242        H  0.72068056  0.40377185  0.06916285     0.36700
H243        H  0.67926481  0.38815033  0.48909185     0.42800
H244        H  0.70904386  0.45353819  0.43687561     0.39200
H245        H  0.84170018  0.67953442  0.10587396     0.44100
H246        H  0.67509975  0.41264131  0.07272895     0.42900
H247        H  0.75913858  0.45464932  0.44421215     0.43000
H248        H  0.89202956  0.73041023  0.45167806     0.43400
O249        O  0.63838879  0.21008882  0.99788613    -0.75500
O250        O  0.60738663  0.12478057  0.99841680    -0.54400
C251        C  0.60092401  0.16412459  0.99834639     0.78200
O252        O  0.87789344  0.26823265  0.43867815    -0.60100
O253        O  0.90732542  0.34430844  0.45639479    -0.53100
C254        C  0.89871034  0.31595409  0.43511558     0.70200
O255        O  0.72499232  0.14528196  0.42273075    -0.74700
O256        O  0.66374600  0.09198257  0.45301922    -0.55200
C257        C  0.68256562  0.10602865  0.42839742     0.76200
O258        O  0.78726406  0.35822407  0.50670980    -0.59800
O259        O  0.87155612  0.38860578  0.50787872    -0.52900
C260        C  0.83265878  0.39516343  0.50900638     0.72800
Zr261      Zr  0.72916648  0.26548541  0.99942953     2.54700
O262        O  0.71195902  0.30261658  0.46178590    -0.80400
O263        O  0.68619389  0.29311598  0.03115250    -0.93800
Zr264      Zr  0.78865738  0.21896704  0.44509669     2.64700
O265        O  0.76729324  0.27274453  0.41788925    -0.98800
O266        O  0.80760531  0.20459042  0.39850597    -0.80800
O267        O  0.71596743  0.19979610  0.47122404    -0.84200
O268        O  0.80481351  0.28938510  0.47281205    -2.18900
O269        O  0.85752271  0.27203901  0.07666756    -0.67600
O270        O  0.90689609  0.33632427  0.04713361    -0.52100
C271        C  0.89532992  0.31602935  0.07155785     0.71200
O272        O  0.77670238  0.06063014  0.49876778    -0.60500
O273        O  0.69246358  0.04507218  0.99987596    -0.52500
C274        C  0.72345093  0.02808655  0.99856215     0.73000
O275        O  0.93651986  0.22102882  0.49929406    -0.71900
O276        O  0.95091696  0.30269949  0.50024734    -0.50500
C277        C  0.96710847  0.27090563  0.49936412     0.74400
O278        O  0.73174101  0.12142212  0.06337413    -0.67200
O279        O  0.65634670  0.09618939  0.04674640    -0.54400
C280        C  0.68518668  0.10363605  0.06758577     0.72800
Zr281      Zr  0.78170669  0.21081344  0.05494847     2.77500
O282        O  0.79213497  0.19544153  0.10314701    -0.97900
O283        O  0.73792235  0.24636581  0.07973172    -0.78800
Zr284      Zr  0.83902192  0.15922269  0.49963870     2.70100
O285        O  0.86418474  0.12698896  0.03627485    -0.80000
O286        O  0.87195873  0.13431565  0.46081626    -0.99100
Zr287      Zr  0.69047003  0.12411098  0.99877437     2.21500
Zr288      Zr  0.87376898  0.30600776  0.50245840     2.11100
O289        O  0.85243680  0.22891514  0.02730338    -2.47800
O290        O  0.76322278  0.14064591  0.02607261    -0.79800
O291        O  0.79734735  0.28268335  0.02888010    -0.72000
O292        O  0.76864252  0.14549761  0.47190209    -2.33000
O293        O  0.71183876  0.19558446  0.02764395    -2.29200
O294        O  0.85624670  0.23367016  0.47398514    -0.73800
H295        H  0.81278063  0.31898258  0.46178727     0.78200
H296        H  0.76103080  0.11720638  0.46001394     0.79300
H297        H  0.88095056  0.23582410  0.03854169     0.81500
H298        H  0.68331952  0.18860618  0.03881158     0.79200
H299        H  0.81960446  0.18017038  0.40085420     0.42200
H300        H  0.84184666  0.10616976  0.45201545     0.41200
H301        H  0.89298893  0.15803926  0.04403426     0.40800
H302        H  0.78999980  0.16192065  0.10394995     0.38800
H303        H  0.76502969  0.27997603  0.08608821     0.41900
H304        H  0.66733680  0.26417850  0.04405099     0.36700
H305        H  0.69769582  0.32229699  0.47002903     0.42800
H306        H  0.78703661  0.27995850  0.40061616     0.39200
H307        H  0.76160237  0.19041581  0.11285814     0.44100
H308        H  0.65985404  0.29424346  0.02010340     0.42900
H309        H  0.73194746  0.24967992  0.41235688     0.43000
H310        H  0.88397101  0.16309741  0.44761482     0.43400
O311        O  0.34931352  0.78859191  0.98285821    -0.75500
O312        O  0.37994942  0.87368354  0.98362684    -0.54400
C313        C  0.38679896  0.83447503  0.98322014     0.78200
O314        O  0.10340132  0.73567964  0.43698522    -0.60100
O315        O  0.07887126  0.65957897  0.45384430    -0.53100
C316        C  0.08355838  0.68818384  0.43312456     0.70200
O317        O  0.24736297  0.86804313  0.41677121    -0.74700
O318        O  0.32421228  0.89365276  0.43193746    -0.55200
C319        C  0.29277972  0.88234836  0.41190627     0.76200
O320        O  0.20810445  0.64670130  0.48818598    -0.59800
O321        O  0.12458746  0.61541485  0.49540029    -0.52900
C322        C  0.16319263  0.60907430  0.49179576     0.72800
Zr323      Zr  0.25857095  0.73681868  0.98654646     2.54700
O324        O  0.28575186  0.70540180  0.44483999    -0.80400
O325        O  0.29297463  0.70644736  0.02201004    -0.93800
Zr326      Zr  0.19368009  0.78535835  0.43457710     2.64700
O327        O  0.21490071  0.73632693  0.40334649    -0.98800
O328        O  0.16575984  0.79207558  0.38877312    -0.80800
O329        O  0.27178397  0.80342756  0.45433342    -0.84200
O330        O  0.18622342  0.71738568  0.46220516    -2.18900
O331        O  0.17561362  0.70210030  0.05393839    -0.67600
O332        O  0.09492275  0.66345396  0.04701416    -0.52100
C333        C  0.13151226  0.67921388  0.06397201     0.71200
O334        O  0.22013652  0.94203037  0.49616336    -0.60500
O335        O  0.29275823  0.95286530  0.98688626    -0.52500
C336        C  0.26254108  0.96946808  0.99285241     0.73000
O337        O  0.05784757  0.78094127  0.49833491    -0.71900
O338        O  0.04465183  0.69981005  0.50154916    -0.50500
C339        C  0.02753652  0.73099851  0.50085204     0.74400
O340        O  0.27051080  0.88296249  0.04420423    -0.67200
O341        O  0.34503529  0.91684843  0.02644016    -0.54400
C342        C  0.31743648  0.90483864  0.04814520     0.72800
Zr343      Zr  0.21924680  0.79253814  0.04848450     2.77500
O344        O  0.18052969  0.80292095  0.08995678    -0.97900
O345        O  0.27494634  0.79363751  0.08419223    -0.78800
Zr346      Zr  0.15582821  0.84420731  0.49510637     2.70100
O347        O  0.12622648  0.87065365  0.03884923    -0.80000
O348        O  0.12361881  0.87628195  0.45934738    -0.99100
Zr349      Zr  0.29652327  0.87509876  0.98454867     2.21500
Zr350      Zr  0.12342983  0.69869167  0.49713260     2.11100
O351        O  0.14110830  0.77027105  0.02712670    -2.47800
O352        O  0.22935202  0.85722316  0.01755185    -0.79800
O353        O  0.19754522  0.72052431  0.02064633    -0.72000
O354        O  0.22066323  0.85963068  0.46243610    -2.33000
O355        O  0.28365003  0.80766749  0.01558592    -2.29200
O356        O  0.13296551  0.76935367  0.46918075    -0.73800
H357        H  0.17677128  0.68822505  0.45087979     0.78200
H358        H  0.22456698  0.89008068  0.45381571     0.79300
H359        H  0.11535174  0.76222776  0.04087801     0.81500
H360        H  0.31422681  0.81571107  0.02509033     0.79200
H361        H  0.14442733  0.80740322  0.39178471     0.42200
H362        H  0.11300916  0.89762670  0.46933693     0.41200
H363        H  0.12071678  0.84579991  0.05361165     0.40800
H364        H  0.14386271  0.78421481  0.08664554     0.38800
H365        H  0.29704810  0.78352506  0.07469463     0.41900
H366        H  0.27014088  0.69871690  0.03801421     0.36700
H367        H  0.25410290  0.67516952  0.43879615     0.42800
H368        H  0.22172868  0.75371762  0.38524978     0.39200
H369        H  0.18572756  0.78315674  0.10445562     0.44100
H370        H  0.32483277  0.73672304  0.02776571     0.42900
H371        H  0.24829048  0.74297939  0.40939369     0.43000
H372        H  0.15360285  0.90095227  0.44857290     0.43400
O373        O  0.59284501  0.86564945  0.41322397    -0.75500
O374        O  0.58239678  0.91672667  0.44338195    -0.54400
C375        C  0.58888372  0.90442413  0.41883895     0.78200
O376        O  0.43110683  0.64478152  0.48795762    -0.60100
O377        O  0.48248855  0.61205474  0.49300715    -0.53100
C378        C  0.43774206  0.60646703  0.49098228     0.70200
O379        O  0.42877547  0.78840760  0.98230601    -0.74700
O380        O  0.48305380  0.87309975  0.98719153    -0.55200
C381        C  0.43724322  0.83429649  0.98399987     0.76200
O382        O  0.61175981  0.73131044  0.42640156    -0.59800
O383        O  0.55665372  0.65772107  0.44566422    -0.52900
C384        C  0.57830888  0.68483108  0.42394283     0.72800
Zr385      Zr  0.58894070  0.79406164  0.43594294     2.54700
O386        O  0.53598784  0.75786108  0.39578460    -0.80400
O387        O  0.66284403  0.83054630  0.40601615    -0.93800
Zr388      Zr  0.46510250  0.73381394  0.98431484     2.64700
O389        O  0.41357083  0.70215848  0.44425385    -0.98800
O390        O  0.38871022  0.69683822  0.01220065    -0.80800
O391        O  0.52697447  0.80738854  0.45751963    -0.84200
O392        O  0.52613247  0.72273025  0.46064308    -2.18900
O393        O  0.71465956  0.77762492  0.49944541    -0.67600
O394        O  0.64716215  0.69645105  0.49528622    -0.52100
C395        C  0.69524885  0.72776074  0.49817469     0.71200
O396        O  0.60718350  0.86811281  0.05858280    -0.60500
O397        O  0.57248465  0.90723573  0.03673146    -0.52500
C398        C  0.59209053  0.90002022  0.05868654     0.73000
O399        O  0.54336436  0.70402483  0.06817843    -0.71900
O400        O  0.55075500  0.65000970  0.03882123    -0.50500
C401        C  0.54347516  0.66306985  0.06301006     0.74400
O402        O  0.71590742  0.93971705  0.49958478    -0.67200
O403        O  0.64689488  0.95219593  0.99169368    -0.54400
C404        C  0.69397334  0.96861344  0.99652806     0.72800
Zr405      Zr  0.68018187  0.84055586  0.49831628     2.77500
O406        O  0.72699139  0.86431215  0.04032165    -0.97900
O407        O  0.75155907  0.87669695  0.46657872    -0.78800
Zr408      Zr  0.55562627  0.78026162  0.04655442     2.70100
O409        O  0.58298390  0.78401011  0.09377882    -0.80000
O410        O  0.48490214  0.77093250  0.07415636    -0.99100
Zr411      Zr  0.56697966  0.87300355  0.98932643     2.21500
Zr412      Zr  0.56642972  0.69501390  0.49256173     2.11100
O413        O  0.61406253  0.76345381  0.02357073    -2.47800
O414        O  0.61418390  0.85039495  0.01992804    -0.79800
O415        O  0.63072732  0.77050877  0.46843939    -0.72000
O416        O  0.50803719  0.80054132  0.01610526    -2.33000
O417        O  0.63351249  0.86170692  0.46656827    -2.29200
O418        O  0.50721862  0.71134991  0.01715497    -0.73800
H419        H  0.50609737  0.69634012  0.44809965     0.78200
H420        H  0.48518668  0.80802900  0.02586426     0.79300
H421        H  0.63076007  0.75365755  0.03695723     0.81500
H422        H  0.65685547  0.89162875  0.45614018     0.79200
H423        H  0.36120274  0.68119659  0.99860962     0.42200
H424        H  0.48837931  0.80509132  0.07442911     0.41200
H425        H  0.61621574  0.78643030  0.09212136     0.40800
H426        H  0.72814846  0.89613001  0.04588389     0.38800
H427        H  0.78141057  0.89223424  0.47865425     0.41900
H428        H  0.68420440  0.86596810  0.41239406     0.36700
H429        H  0.50742256  0.76360323  0.39883290     0.42800
H430        H  0.38321332  0.70404616  0.44893370     0.39200
H431        H  0.70513638  0.83894312  0.05437814     0.44100
H432        H  0.65046191  0.83341770  0.38772419     0.42900
H433        H  0.43078603  0.72826277  0.42967246     0.43000
H434        H  0.45436361  0.74945617  0.06321146     0.43400
O435        O  0.20733607  0.56508646  0.99081033    -0.75500
O436        O  0.12268791  0.51119293  0.99226738    -0.54400
C437        C  0.16206552  0.55706522  0.99182707     0.78200
O438        O  0.24911031  0.36571599  0.43748185    -0.60100
O439        O  0.32670178  0.41636868  0.45082247    -0.53100
C440        C  0.29546012  0.39170692  0.43136865     0.70200
O441        O  0.12355958  0.38735065  0.42441513    -0.74700
O442        O  0.10452880  0.44179266  0.44312359    -0.55200
C443        C  0.11082908  0.42038272  0.42165608     0.76200
O444        O  0.35069485  0.56488188  0.49042624    -0.59800
O445        O  0.37986813  0.51014539  0.49508049    -0.52900
C446        C  0.38723751  0.55621765  0.49227570     0.72800
Zr447      Zr  0.25948004  0.52637033  0.99080055     2.54700
O448        O  0.29221611  0.58770722  0.45206300    -0.80400
O449        O  0.29650243  0.59133182  0.02622412    -0.93800
Zr450      Zr  0.20579889  0.41219015  0.43938444     2.64700
O451        O  0.25489767  0.47866689  0.40543216    -0.98800
O452        O  0.18943274  0.37669079  0.39324623    -0.80800
O453        O  0.19300349  0.47393811  0.46216127    -0.84200
O454        O  0.27684776  0.47230097  0.46485288    -2.18900
O455        O  0.26343631  0.41234813  0.07401619    -0.67600
O456        O  0.32159937  0.41402675  0.04434980    -0.52100
C457        C  0.30256041  0.40925029  0.06885162     0.71200
O458        O  0.05501066  0.27990970  0.50079338    -0.60500
O459        O  0.04018767  0.34636824  0.99251283    -0.52500
C460        C  0.02239635  0.29813659  0.99648171     0.73000
O461        O  0.21478570  0.27794855  0.50278921    -0.71900
O462        O  0.29559146  0.34557535  0.49962037    -0.50500
C463        C  0.26433149  0.29739109  0.50208165     0.74400
O464        O  0.11418966  0.38692590  0.05695615    -0.67200
O465        O  0.08340655  0.42963832  0.03593235    -0.54400
C466        C  0.09209643  0.41265446  0.05826700     0.72800
Zr467      Zr  0.20412819  0.42845704  0.05092059     2.77500
O468        O  0.18048486  0.41137467  0.09944950    -0.97900
O469        O  0.23367363  0.50963324  0.07390169    -0.78800
Zr470      Zr  0.15214432  0.31315488  0.50013394     2.70100
O471        O  0.11534153  0.25186231  0.03846296    -0.80000
O472        O  0.12345800  0.25189429  0.46275712    -0.99100
Zr473      Zr  0.12006358  0.42610411  0.99155037     2.21500
Zr474      Zr  0.29648474  0.42509473  0.49706466     2.11100
O475        O  0.22023893  0.37028679  0.02651879    -2.47800
O476        O  0.13611773  0.37314128  0.02252246    -0.79800
O477        O  0.27655269  0.47887770  0.02326979    -0.72000
O478        O  0.13535285  0.36474361  0.46958141    -2.33000
O479        O  0.18971939  0.48035653  0.02043106    -2.29200
O480        O  0.22335599  0.36462021  0.47144567    -0.73800
H481        H  0.30494861  0.49209206  0.45269217     0.78200
H482        H  0.10482166  0.33912190  0.46098144     0.79300
H483        H  0.22609491  0.34897316  0.03887578     0.81500
H484        H  0.18261932  0.50292041  0.03086662     0.79200
H485        H  0.16208061  0.34089554  0.39569539     0.42200
H486        H  0.13085954  0.27286276  0.44584883     0.41200
H487        H  0.11426793  0.27260030  0.05380889     0.40800
H488        H  0.16559900  0.37419517  0.10171647     0.38800
H489        H  0.20335820  0.50667028  0.08291470     0.41900
H490        H  0.31096427  0.57792923  0.03973725     0.36700
H491        H  0.30080253  0.62087224  0.46018477     0.42800
H492        H  0.26352692  0.51105701  0.41451292     0.39200
H493        H  0.21222518  0.42679204  0.10997804     0.44100
H494        H  0.26759494  0.59015169  0.03596718     0.42900
H495        H  0.23087564  0.47477617  0.39087592     0.43000
H496        H  0.14777291  0.23969208  0.46212034     0.43400
O497        O  0.42649322  0.16637427  0.42238904    -0.75500
O498        O  0.43238875  0.10681156  0.44811826    -0.54400
C499        C  0.43107705  0.12740593  0.42481371     0.78200
O500        O  0.56190149  0.35669917  0.51573754    -0.60100
O501        O  0.50858694  0.38782068  0.51628359    -0.53100
C502        C  0.55395183  0.39411120  0.51718301     0.70200
O503        O  0.55881151  0.20888714  0.00520493    -0.74700
O504        O  0.50515323  0.12511758  0.99702902    -0.55200
C505        C  0.55562576  0.16934617  0.50006287     0.76200
O506        O  0.38499388  0.27807126  0.45329844    -0.59800
O507        O  0.42955970  0.35339513  0.47077828    -0.52900
C508        C  0.41118851  0.32568916  0.44941358     0.72800
Zr509      Zr  0.42684213  0.23028991  0.44994298     2.54700
O510        O  0.50045076  0.29355357  0.42420611    -0.80400
O511        O  0.38821241  0.22096846  0.40497947    -0.93800
Zr512      Zr  0.52475891  0.26673629  0.50882046     2.64700
O513        O  0.59089328  0.30764352  0.47399540    -0.98800
O514        O  0.57517181  0.28174106  0.05160034    -0.80800
O515        O  0.47879883  0.20690059  0.47428897    -0.84200
O516        O  0.47817429  0.29338100  0.48212872    -2.18900
O517        O  0.27584798  0.21928844  0.50088112    -0.67600
O518        O  0.34105748  0.29972940  0.51042492    -0.52100
C519        C  0.29393875  0.26840813  0.50494719     0.71200
O520        O  0.36180687  0.10217959  0.05724612    -0.60500
O521        O  0.40998263  0.07510985  0.03986125    -0.52500
C522        C  0.38763640  0.08077707  0.06081051     0.73000
O523        O  0.37821105  0.24869263  0.08038630    -0.71900
O524        O  0.42867051  0.32565697  0.06156828    -0.50500
C525        C  0.40845950  0.29613633  0.08282566     0.74400
O526        O  0.27847768  0.06082915  0.49725570    -0.67200
O527        O  0.34026749  0.04580279  0.99373912    -0.54400
C528        C  0.29230140  0.02856746  0.99447816     0.72800
Zr529      Zr  0.31240491  0.15832535  0.50119716     2.77500
O530        O  0.23916215  0.11605583  0.02972393    -0.97900
O531        O  0.25412834  0.13228113  0.46281065    -0.78800
Zr532      Zr  0.40342945  0.19341079  0.05998726     2.70100
O533        O  0.36292044  0.16334048  0.10487269    -0.80000
O534        O  0.47478029  0.21753970  0.09029231    -0.99100
Zr535      Zr  0.42547821  0.12814776  0.49722820     2.21500
Zr536      Zr  0.42321083  0.30499578  0.51292383     2.11100
O537        O  0.35806583  0.22063539  0.03162535    -2.47800
O538        O  0.36026270  0.13382686  0.02459977    -0.79800
O539        O  0.37166183  0.23794309  0.48070314    -0.72000
O540        O  0.46423206  0.18456362  0.03341270    -2.33000
O541        O  0.37186132  0.15092176  0.47171048    -2.29200
O542        O  0.46485923  0.27179155  0.03994590    -0.73800
H543        H  0.50080542  0.32487235  0.47278410     0.78200
H544        H  0.48242917  0.17356015  0.04491026     0.79300
H545        H  0.33292701  0.22455406  0.04146878     0.81500
H546        H  0.35312117  0.12552924  0.45797719     0.79200
H547        H  0.57083007  0.24866802  0.05769619     0.42200
H548        H  0.46687489  0.22947447  0.10746534     0.41200
H549        H  0.38221047  0.19100452  0.11812479     0.40800
H550        H  0.24262574  0.14380321  0.04174582     0.38800
H551        H  0.24344677  0.09613203  0.45959618     0.41900
H552        H  0.35971455  0.18544551  0.40429911     0.36700
H553        H  0.49769206  0.27862908  0.40580154     0.42800
H554        H  0.57905114  0.28368175  0.45837022     0.39200
H555        H  0.20935322  0.10730630  0.01829129     0.44100
H556        H  0.41257671  0.22311218  0.39088708     0.42900
H557        H  0.58861694  0.33715047  0.46726399     0.43000
H558        H  0.47274296  0.18532326  0.09560327     0.43400
C559        C  0.38668370  0.30132111  0.13234428    -0.02100
C560        C  0.42385929  0.31363017  0.11161745     0.07600
C561        C  0.47288364  0.32674606  0.11995655    -0.02200
C562        C  0.48392334  0.32778097  0.14814987    -0.02200
C563        C  0.44986906  0.32507296  0.16838075     0.07700
C564        C  0.40009342  0.30884480  0.16047607    -0.02400
Br565      Br  0.35021601  0.29534006  0.18845766    -0.00900
Br566      Br  0.31712906  0.27330508  0.12236627    -0.01000
Br567      Br  0.54014175  0.32156899  0.15981819    -0.01000
Br568      Br  0.52474211  0.34074886  0.09311612    -0.00900
C569        C  0.40507306  0.32733710  0.37114161    -0.02100
C570        C  0.45485973  0.36354311  0.36383332     0.07600
C571        C  0.49067724  0.38703443  0.38481387    -0.02200
C572        C  0.47606152  0.37887726  0.41284990    -0.02200
C573        C  0.42540045  0.34427792  0.42035607     0.07700
C574        C  0.39012380  0.31835123  0.39908327    -0.02400
Br575      Br  0.32063729  0.26966574  0.40786883    -0.00900
Br576      Br  0.35788401  0.28876016  0.34266743    -0.01000
Br577      Br  0.52675828  0.41384622  0.44043218    -0.01000
Br578      Br  0.56084885  0.42673184  0.37465852    -0.00900
C579        C  0.65143326  0.53131235  0.11994435    -0.02100
C580        C  0.67744896  0.58356165  0.11296758     0.07600
C581        C  0.69969110  0.61969819  0.13470001    -0.02200
C582        C  0.69081853  0.60349755  0.16256225    -0.02200
C583        C  0.66206087  0.55154069  0.16894743     0.07700
C584        C  0.64821190  0.51622133  0.14752524    -0.02400
Br585      Br  0.62347854  0.44639034  0.15697531    -0.00900
Br586      Br  0.62064279  0.47909553  0.09240070    -0.01000
Br587      Br  0.71789826  0.65158560  0.19228357    -0.01000
Br588      Br  0.74165538  0.69173636  0.12712064    -0.00900
C589        C  0.66728913  0.58584634  0.36669461    -0.02100
C590        C  0.61443507  0.55818125  0.36352036     0.07600
C591        C  0.58349678  0.54879253  0.38780138    -0.02200
C592        C  0.60525203  0.56130013  0.41423503    -0.02200
C593        C  0.65743673  0.58361680  0.41702950     0.07700
C594        C  0.68814278  0.60138481  0.39303133    -0.02400
Br595      Br  0.75945257  0.65001922  0.39635241    -0.00900
Br596      Br  0.71286506  0.60263799  0.33575818    -0.01000
Br597      Br  0.56345738  0.54802170  0.44665868    -0.01000
Br598      Br  0.51036783  0.51503719  0.38717903    -0.00900
C599        C  0.57003777  0.63846890  0.13483335    -0.02100
C600        C  0.52169681  0.60346129  0.14493535     0.07600
C601        C  0.48046019  0.58465470  0.12674917    -0.02200
C602        C  0.48815349  0.59886030  0.09852768    -0.02200
C603        C  0.53710238  0.63261851  0.08824647     0.07700
C604        C  0.57785337  0.65228370  0.10670464    -0.02400
Br605      Br  0.64423559  0.70162349  0.09345713    -0.00900
Br606      Br  0.62461403  0.67085922  0.16031017    -0.01000
Br607      Br  0.43147979  0.57485875  0.07412255    -0.01000
Br608      Br  0.41305201  0.54466266  0.14133285    -0.00900
C609        C  0.50464056  0.64897520  0.35714773    -0.02100
C610        C  0.53940089  0.65081844  0.33801298     0.07600
C611        C  0.58897893  0.66780983  0.34678319    -0.02200
C612        C  0.60133995  0.67746767  0.37500194    -0.02200
C613        C  0.56328072  0.66622169  0.39508168     0.07700
C614        C  0.51421536  0.65128576  0.38551763    -0.02400
Br615      Br  0.45855708  0.63404027  0.40973461    -0.00900
Br616      Br  0.44714488  0.65051378  0.34310882    -0.01000
Br617      Br  0.67062343  0.70587327  0.38593676    -0.01000
Br618      Br  0.64029276  0.68012530  0.31997042    -0.00900
C619        C  0.31573856  0.38434862  0.14395502    -0.02100
C620        C  0.36843784  0.41310922  0.14736679     0.07600
C621        C  0.39959105  0.42925518  0.12293167    -0.02200
C622        C  0.37815161  0.42331303  0.09657624    -0.02200
C623        C  0.32576458  0.40086644  0.09392124     0.07700
C624        C  0.29492072  0.37648734  0.11738434    -0.02400
Br625      Br  0.22421085  0.32709643  0.11287154    -0.00900
Br626      Br  0.27106789  0.35252545  0.17510268    -0.01000
Br627      Br  0.42121704  0.44563590  0.06417558    -0.01000
Br628      Br  0.47252460  0.46217539  0.12361039    -0.00900
C629        C  0.28280432  0.36314730  0.38092710    -0.02100
C630        C  0.30905406  0.40141033  0.40126332     0.07600
C631        C  0.33909857  0.45200609  0.39183395    -0.02200
C632        C  0.34006138  0.46345935  0.36378711    -0.02200
C633        C  0.32504147  0.42566434  0.34377606     0.07700
C634        C  0.29414430  0.37480259  0.35241822    -0.02400
Br635      Br  0.26498666  0.32244335  0.32507045    -0.00900
Br636      Br  0.22993318  0.29551385  0.39115771    -0.01000
Br637      Br  0.35731337  0.53019033  0.35194961    -0.01000
Br638      Br  0.37961952  0.50682962  0.41627072    -0.00900
C639        C  0.91038712  0.62280707  0.12908979    -0.02100
C640        C  0.89776304  0.58540883  0.10825802     0.07600
C641        C  0.87653744  0.53379075  0.11674787    -0.02200
C642        C  0.86889061  0.52077361  0.14497860    -0.02200
C643        C  0.88824851  0.55866495  0.16529397     0.07700
C644        C  0.90501829  0.60906289  0.15732735    -0.02400
Br645      Br  0.92083241  0.65867678  0.18581323    -0.00900
Br646      Br  0.93826343  0.69396843  0.11975442    -0.01000
Br647      Br  0.83346252  0.45040702  0.15670262    -0.01000
Br648      Br  0.85961783  0.47955887  0.09085789    -0.00900
C649        C  0.96335684  0.55009452  0.38573588    -0.02100
C650        C  0.94659178  0.56603095  0.36179500     0.07600
C651        C  0.92326201  0.59523077  0.36654081    -0.02200
C652        C  0.91385007  0.60474198  0.39368357    -0.02200
C653        C  0.92263742  0.58136275  0.41661809     0.07700
C654        C  0.95038504  0.55710264  0.41269185    -0.02400
Br655      Br  0.96958914  0.53247330  0.44452471    -0.00900
Br656      Br  0.00280506  0.51638041  0.38409061    -0.01000
Br657      Br  0.88961350  0.65162894  0.39976936    -0.01000
Br658      Br  0.90271328  0.62259583  0.33665806    -0.00900
C659        C  0.94019407  0.41594399  0.12673565    -0.02100
C660        C  0.92584141  0.38400575  0.15101676     0.07600
C661        C  0.91633192  0.33358119  0.14752783    -0.02200
C662        C  0.91783289  0.31540922  0.12100622    -0.02200
C663        C  0.92224401  0.34415674  0.09704253     0.07700
C664        C  0.93783581  0.39583361  0.10017780    -0.02400
Br665      Br  0.95592009  0.43953378  0.06795730    -0.00900
Br666      Br  0.96322060  0.48802011  0.12764030    -0.01000
Br667      Br  0.91396218  0.25018878  0.11726242    -0.01000
Br668      Br  0.89723559  0.28616464  0.17799175    -0.00900
C669        C  0.89872861  0.38753084  0.36991720    -0.02100
C670        C  0.91583990  0.36679886  0.34955198     0.07600
C671        C  0.92271806  0.32608724  0.35681010    -0.02200
C672        C  0.91821771  0.31015909  0.38464980    -0.02200
C673        C  0.90736668  0.33560806  0.40589415     0.07700
C674        C  0.89611451  0.37357600  0.39792666    -0.02400
Br675      Br  0.87376910  0.40491359  0.42457987    -0.00900
Br676      Br  0.87385905  0.43149685  0.35854309    -0.01000
Br677      Br  0.92767376  0.25330992  0.39287280    -0.01000
Br678      Br  0.93635157  0.29106528  0.32820446    -0.00900
C679        C  0.07153221  0.39331927  0.10906415    -0.02100
C680        C  0.08229299  0.42662893  0.08617686     0.07600
C681        C  0.09139998  0.47615057  0.09109765    -0.02200
C682        C  0.08925521  0.49145031  0.11809966    -0.02200
C683        C  0.08181277  0.45989798  0.14122585     0.07700
C684        C  0.07319740  0.41047066  0.13636775    -0.02400
Br685      Br  0.06126944  0.36512200  0.16687962    -0.00900
Br686      Br  0.05138182  0.32282593  0.10316282    -0.01000
Br687      Br  0.09566144  0.55638130  0.12286602    -0.01000
Br688      Br  0.10965544  0.52541627  0.06146719    -0.00900
C689        C  0.15534361  0.49727045  0.35518171    -0.02100
C690        C  0.12652115  0.46094847  0.33532886     0.07600
C691        C  0.09659038  0.41025765  0.34373819    -0.02200
C692        C  0.08934772  0.39739810  0.37195246    -0.02200
C693        C  0.11044978  0.43587377  0.39244881     0.07700
C694        C  0.14525698  0.48616106  0.38359594    -0.02400
Br695      Br  0.18323941  0.53877468  0.40989885    -0.00900
Br696      Br  0.21442365  0.55773332  0.34222867    -0.01000
Br697      Br  0.05288534  0.32629164  0.38178033    -0.01000
Br698      Br  0.06716089  0.35892057  0.31582608    -0.00900
C699        C  0.15665366  0.67128401  0.14062941    -0.02100
C700        C  0.11396679  0.66865716  0.15275148     0.07600
C701        C  0.08310066  0.67969323  0.13658657    -0.02200
C702        C  0.08698306  0.68124178  0.10763279    -0.02200
C703        C  0.12555335  0.67627036  0.09467038     0.07700
C704        C  0.16257956  0.67477156  0.11165163    -0.02400
Br705      Br  0.21650984  0.66734373  0.09607633    -0.00900
Br706      Br  0.20240004  0.66202500  0.16363360    -0.01000
Br707      Br  0.03980685  0.69107382  0.08639780    -0.01000
Br708      Br  0.03892245  0.69676428  0.15537358    -0.00900
C709        C  0.10487876  0.64583770  0.39591772    -0.02100
C710        C  0.07920353  0.67100729  0.40397289     0.07600
C711        C  0.06272434  0.69189805  0.38299052    -0.02200
C712        C  0.07030820  0.68550477  0.35472718    -0.02200
C713        C  0.09810968  0.66208732  0.34727805     0.07700
C714        C  0.11953369  0.64785856  0.36840691    -0.02400
Br715      Br  0.17220876  0.63460776  0.35930657    -0.00900
Br716      Br  0.11767563  0.60515000  0.42135812    -0.01000
Br717      Br  0.04430061  0.70999434  0.32635910    -0.01000
Br718      Br  0.02785533  0.72730023  0.39284969    -0.00900
C719        C  0.38861478  0.89764035  0.11110994    -0.02100
C720        C  0.36396768  0.90647977  0.13316357     0.07600
C721        C  0.32199507  0.91151838  0.12726406    -0.02200
C722        C  0.30810465  0.91285459  0.09965225    -0.02200
C723        C  0.33613787  0.90905527  0.07720339     0.07700
C724        C  0.37624168  0.90061031  0.08342222    -0.02400
Br725      Br  0.41266125  0.88920049  0.05455607    -0.00900
Br726      Br  0.43472260  0.87422649  0.11921793    -0.01000
Br727      Br  0.25037808  0.92065701  0.09338289    -0.01000
Br728      Br  0.28238750  0.91497257  0.15713361    -0.00900
C729        C  0.28574999  0.87937419  0.33351579    -0.02100
C730        C  0.32007042  0.86385327  0.32677639     0.07600
C731        C  0.33804876  0.84536991  0.34777911    -0.02200
C732        C  0.33156976  0.85358741  0.37564790    -0.02200
C733        C  0.30462082  0.87837440  0.38259598     0.07700
C734        C  0.27840080  0.88760781  0.36121973    -0.02400
Br735      Br  0.23289847  0.91274029  0.36876946    -0.00900
Br736      Br  0.25089130  0.89109235  0.30411298    -0.01000
Br737      Br  0.35821944  0.82879512  0.40371585    -0.01000
Br738      Br  0.37411293  0.81130663  0.33745434    -0.00900
C739        C  0.61354988  0.91247032  0.10985224    -0.02100
C740        C  0.59418677  0.92443401  0.08607769     0.07600
C741        C  0.57105015  0.95365480  0.09005106    -0.02200
C742        C  0.55970295  0.96256519  0.11693176    -0.02200
C743        C  0.56731825  0.93857916  0.14054363     0.07700
C744        C  0.59732961  0.91610622  0.13666392    -0.02400
Br745      Br  0.61564309  0.88838926  0.16735585    -0.00900
Br746      Br  0.66724408  0.89705761  0.10670745    -0.01000
Br747      Br  0.53361236  0.00856871  0.11951472    -0.01000
Br748      Br  0.55552790  0.98326012  0.05892104    -0.00900
C749        C  0.61503448  0.93432147  0.37050752    -0.02100
C750        C  0.58632727  0.93154018  0.39395419     0.07600
C751        C  0.54356544  0.93578184  0.39038652    -0.02200
C752        C  0.52420343  0.93286787  0.36380270    -0.02200
C753        C  0.54897830  0.92772799  0.33976785     0.07700
C754        C  0.59613736  0.93088521  0.34366948    -0.02400
Br755      Br  0.63449970  0.92663014  0.31323647    -0.00900
Br756      Br  0.68030319  0.94123108  0.37564216    -0.01000
Br757      Br  0.46212038  0.93432682  0.36287101    -0.01000
Br758      Br  0.50913930  0.94199683  0.42241187    -0.00900
C759        C  0.65360190  0.14107262  0.13629698    -0.02100
C760        C  0.65748772  0.10846967  0.15515574     0.07600
C761        C  0.67469619  0.07640880  0.14526785    -0.02200
C762        C  0.68355291  0.07450416  0.11671278    -0.02200
C763        C  0.66905291  0.09960285  0.09724208     0.07700
C764        C  0.65326768  0.13272220  0.10769283    -0.02400
Br765      Br  0.62913079  0.16567032  0.08380720    -0.00900
Br766      Br  0.65589475  0.20093558  0.15069434    -0.01000
Br767      Br  0.71562804  0.03753467  0.10451615    -0.01000
Br768      Br  0.68673411  0.03595727  0.17125272    -0.00900
C769        C  0.67794561  0.07409520  0.38041406    -0.02100
C770        C  0.65321340  0.08030758  0.40352793     0.07600
C771        C  0.60686328  0.07764677  0.39978990    -0.02200
C772        C  0.58549077  0.06897544  0.37347075    -0.02200
C773        C  0.61144065  0.06630938  0.34970496     0.07700
C774        C  0.65802142  0.06864241  0.35362000    -0.02400
Br775      Br  0.69501557  0.06425390  0.32266320    -0.00900
Br776      Br  0.74060661  0.07496385  0.38549166    -0.01000
Br777      Br  0.52075695  0.06300098  0.37126447    -0.01000
Br778      Br  0.57529317  0.09281035  0.43011387    -0.00900
C779        C  0.38243776  0.06972136  0.13956897    -0.02100
C780        C  0.43387861  0.08965278  0.14512039     0.07600
C781        C  0.46760243  0.10427616  0.12286976    -0.02200
C782        C  0.45078188  0.09044088  0.09592024    -0.02200
C783        C  0.40032868  0.07455697  0.08964655     0.07700
C784        C  0.36616071  0.06518988  0.11191780    -0.02400
Br785      Br  0.29701734  0.04597097  0.10520317    -0.00900
Br786      Br  0.33471350  0.04900137  0.16958073    -0.01000
Br787      Br  0.49875657  0.09542814  0.06852936    -0.01000
Br788      Br  0.53754622  0.14732336  0.12993664    -0.00900
C789        C  0.47854609  0.13303355  0.35228376    -0.02100
C790        C  0.43649163  0.09169736  0.34000131     0.07600
C791        C  0.39260959  0.06284565  0.35583166    -0.02200
C792        C  0.39237322  0.07026540  0.38450850    -0.02200
C793        C  0.43586115  0.10861151  0.39750597     0.07700
C794        C  0.47821616  0.14149618  0.38087360    -0.02400
Br795      Br  0.53680155  0.19744103  0.39759368    -0.00900
Br796      Br  0.53821111  0.17486233  0.33040065    -0.01000
Br797      Br  0.33195763  0.02959910  0.40587050    -0.01000
Br798      Br  0.33223069  0.01667807  0.33684068    -0.00900
O799        O  0.45130998  0.07688307  0.79350902    -0.75500
O800        O  0.45895835  0.01917908  0.81985458    -0.54400
C801        C  0.45309230  0.05764700  0.81707704     0.78200
O802        O  0.35747160  0.89921459  0.68194585    -0.60100
O803        O  0.42807574  0.95575585  0.65831896    -0.53100
C804        C  0.38170966  0.92097454  0.65930917     0.70200
O805        O  0.33234026  0.88692446  0.77774508    -0.74700
O806        O  0.39217120  0.91572715  0.81096742    -0.55200
C807        C  0.34652013  0.89231514  0.80318086     0.76200
O808        O  0.45118019  0.08788471  0.69728506    -0.59800
O809        O  0.48434454  0.05619235  0.66676199    -0.52900
C810        C  0.46224690  0.08112846  0.67241199     0.72800
Zr811      Zr  0.46379146  0.06159368  0.74431289     2.54700
O812        O  0.39645114  0.08096832  0.74875906    -0.80400
O813        O  0.52638606  0.15200126  0.74449410    -0.93800
Zr814      Zr  0.37757142  0.90942727  0.73243755     2.64700
O815        O  0.29907077  0.90778764  0.72290429    -0.98800
O816        O  0.33528439  0.81696560  0.72988812    -0.80800
O817        O  0.41955865  0.97908236  0.76036837    -0.84200
O818        O  0.42297432  0.99253467  0.71315210    -2.18900
O819        O  0.63406883  0.07560305  0.70332046    -0.67600
O820        O  0.57380568  0.04142151  0.67040956    -0.52100
C821        C  0.61964957  0.06683382  0.67791759     0.71200
O822        O  0.52911566  0.89006097  0.78376964    -0.60500
O823        O  0.47423657  0.89819059  0.81096060    -0.52500
C824        C  0.50978875  0.88879612  0.80777718     0.73000
O825        O  0.53430202  0.90228214  0.68814253    -0.71900
O826        O  0.48850778  0.92694750  0.66484122    -0.50500
C827        C  0.52226495  0.91512119  0.66525057     0.74400
O828        O  0.60721685  0.05328352  0.79880299    -0.67200
O829        O  0.53650157  0.99507128  0.82064906    -0.54400
C830        C  0.58275575  0.02896462  0.82093579     0.72800
Zr831      Zr  0.58757530  0.04809243  0.74831725     2.77500
O832        O  0.65911176  0.03553143  0.75423962    -0.97900
O833        O  0.64005256  0.14012146  0.75219453    -0.78800
Zr834      Zr  0.50207036  0.89807117  0.73624183     2.70100
O835        O  0.54834755  0.85299275  0.73185386    -0.80000
O836        O  0.43431852  0.80961522  0.73385620    -0.99100
Zr837      Zr  0.47043856  0.96549982  0.78835089     2.21500
Zr838      Zr  0.49296227  0.99349066  0.69192038     2.11100
O839        O  0.55305642  0.98046915  0.71623769    -2.47800
O840        O  0.53442047  0.96747212  0.76406733    -0.79800
O841        O  0.52803979  0.05620931  0.72365468    -0.72000
O842        O  0.43108582  0.89210807  0.76004283    -2.33000
O843        O  0.52130251  0.05075985  0.77230930    -2.29200
O844        O  0.44864625  0.91661677  0.71300216    -0.73800
H845        H  0.40121571  0.99643322  0.70039083     0.78200
H846        H  0.41238735  0.86088341  0.77052865     0.79300
H847        H  0.58042169  0.98235642  0.70554896     0.81500
H848        H  0.53502387  0.07542922  0.78689631     0.79200
H849        H  0.30983695  0.80773637  0.71529579     0.42200
H850        H  0.43070130  0.80170103  0.71397327     0.41200
H851        H  0.58325720  0.87822067  0.73714239     0.40800
H852        H  0.65151570  0.00604444  0.74248386     0.38800
H853        H  0.63286787  0.14771312  0.77090501     0.41900
H854        H  0.53709482  0.15927869  0.76392765     0.36700
H855        H  0.36894077  0.05516014  0.73729886     0.42800
H856        H  0.27916594  0.89655125  0.74020034     0.39200
H857        H  0.68755762  0.06501907  0.74478675     0.44100
H858        H  0.50671013  0.16913387  0.74144398     0.42900
H859        H  0.30896602  0.94405305  0.72084661     0.43000
H860        H  0.44869117  0.78963775  0.74163616     0.43400
O861        O  0.09380756  0.65004342  0.80027083    -0.75500
O862        O  0.07913339  0.58250094  0.82667418    -0.54400
C863        C  0.09077995  0.62883117  0.82397478     0.78200
O864        O  0.90547060  0.54734428  0.71579177    -0.60100
O865        O  0.95081413  0.53656418  0.68208089    -0.53100
C866        C  0.91598484  0.54462925  0.69018145     0.70200
O867        O  0.93545265  0.55433831  0.81190705    -0.74700
O868        O  0.98916765  0.53652523  0.83342213    -0.55200
C869        C  0.95702764  0.55061685  0.83406674     0.76200
O870        O  0.10691286  0.65431862  0.70368110    -0.59800
O871        O  0.05691079  0.58911298  0.67512980    -0.52900
C872        C  0.08988424  0.63545819  0.67961262     0.72800
Zr873      Zr  0.09158271  0.62032129  0.75184656     2.54700
O874        O  0.11468660  0.70953962  0.74991691    -0.80400
O875        O  0.18218137  0.65529526  0.75547343    -0.93800
Zr876      Zr  0.94068314  0.54080223  0.76097067     2.64700
O877        O  0.93479081  0.61698052  0.76724907    -0.98800
O878        O  0.84987730  0.48865308  0.76748637    -0.80800
O879        O  0.02015038  0.57310696  0.77726589    -0.84200
O880        O  0.01129800  0.58504929  0.73030484    -2.18900
O881        O  0.09868855  0.46908685  0.69418075    -0.67600
O882        O  0.04766152  0.48977556  0.67078925    -0.52100
C883        C  0.07772187  0.47229728  0.67175204     0.71200
O884        O  0.92239122  0.37489302  0.80004591    -0.60500
O885        O  0.97583530  0.43864478  0.82827621    -0.52500
C886        C  0.93939234  0.39350348  0.82412544     0.73000
O887        O  0.92955799  0.38070659  0.70312544    -0.71900
O888        O  0.93914167  0.44889722  0.68105746    -0.50500
C889        C  0.93265036  0.40450533  0.68040958     0.74400
O890        O  0.11639874  0.46757231  0.78816480    -0.67200
O891        O  0.08306303  0.49333307  0.82184257    -0.54400
C892        C  0.10950788  0.47465750  0.81359138     0.72800
Zr893      Zr  0.09442829  0.49061992  0.74352577     2.77500
O894        O  0.12419605  0.43047195  0.73840193    -0.97900
O895        O  0.18221388  0.55665030  0.73718910    -0.78800
Zr896      Zr  0.94206670  0.40954677  0.75222674     2.70100
O897        O  0.93156341  0.32486134  0.75496978    -0.80000
O898        O  0.85120380  0.36934801  0.74695391    -0.99100
Zr899      Zr  0.02612254  0.51111383  0.79946936     2.21500
Zr900      Zr  0.00808727  0.51742633  0.70384346     2.11100
O901        O  0.01414475  0.44838450  0.72288373    -2.47800
O902        O  0.02214709  0.45169117  0.77002934    -0.79800
O903        O  0.08316814  0.55391808  0.72563694    -0.72000
O904        O  0.94246490  0.47145701  0.78254788    -2.33000
O905        O  0.10205726  0.55576748  0.77358419    -2.29200
O906        O  0.94370296  0.48011292  0.73461876    -0.73800
H907        H  0.00872676  0.61003553  0.71920771     0.79700
H908        H  0.91687048  0.45674418  0.79674865     0.79300
H909        H  0.01369522  0.42377062  0.71035433     0.81500
H910        H  0.13169144  0.56946531  0.78495619     0.79200
H911        H  0.84465643  0.48786783  0.78764640     0.42200
H912        H  0.84103960  0.38728503  0.76013663     0.41200
H913        H  0.95799710  0.32651627  0.74257153     0.40800
H914        H  0.15795705  0.44715798  0.74691789     0.38800
H915        H  0.19484282  0.54370945  0.72235672     0.41900
H916        H  0.19010473  0.66714999  0.77472090     0.36700
H917        H  0.14404429  0.72719601  0.76223628     0.42800
H918        H  0.97010722  0.64546311  0.76672712     0.39200
H919        H  0.10257706  0.40143752  0.75075198     0.44100
H920        H  0.19737139  0.68697760  0.74429920     0.42900
H921        H  0.91982938  0.62076115  0.75007688     0.43000
H922        H  0.84664222  0.38062326  0.72860143     0.43400
O923        O  0.53510748  0.64262526  0.79069929    -0.75500
O924        O  0.49555122  0.57897334  0.82219192    -0.54400
C925        C  0.52178133  0.62618357  0.81566395     0.78200
O926        O  0.37945828  0.43995216  0.69617708    -0.60100
O927        O  0.44954367  0.45106231  0.67481297    -0.53100
C928        C  0.40394848  0.43968935  0.67423382     0.70200
O929        O  0.35177011  0.43700562  0.79383684    -0.74700
O930        O  0.41451663  0.47418117  0.82495866    -0.55200
C931        C  0.36799406  0.44851342  0.81902184     0.76200
O932        O  0.52820443  0.61903254  0.69561630    -0.59800
O933        O  0.52397247  0.55167076  0.67304128    -0.52900
C934        C  0.52762087  0.59536892  0.67337464     0.72800
Zr935      Zr  0.51960454  0.59809522  0.74581350     2.54700
O936        O  0.46066417  0.62921705  0.74581768    -0.80400
O937        O  0.59024070  0.68332833  0.73661746    -0.93800
Zr938      Zr  0.39613995  0.45661717  0.74715156     2.64700
O939        O  0.34923637  0.50086541  0.74208447    -0.98800
O940        O  0.31692885  0.37722277  0.74129098    -0.80800
O941        O  0.45512992  0.52951004  0.76870942    -0.84200
O942        O  0.46172202  0.52434680  0.72086817    -2.18900
O943        O  0.65208316  0.55986101  0.71753727    -0.67600
O944        O  0.59128113  0.52183599  0.68520196    -0.52100
C945        C  0.63707792  0.54769653  0.69239847     0.71200
O946        O  0.47316192  0.37580577  0.81260510    -0.60500
O947        O  0.48097356  0.44445743  0.83539817    -0.52500
C948        C  0.47330044  0.39920376  0.83479605     0.73000
O949        O  0.45811878  0.35552193  0.71720210    -0.71900
O950        O  0.50999207  0.41744285  0.68773561    -0.50500
C951        C  0.47576382  0.37165104  0.69272267     0.74400
O952        O  0.62556852  0.55646513  0.81433460    -0.67200
O953        O  0.55464952  0.54661781  0.83379735    -0.54400
C954        C  0.60010996  0.55840676  0.83541287     0.72800
Zr955      Zr  0.60829455  0.53865484  0.76328121     2.77500
O956        O  0.65908976  0.49906314  0.77069252    -0.97900
O957        O  0.68643977  0.62020595  0.76600490    -0.78800
Zr958      Zr  0.48538016  0.39770643  0.76274249     2.70100
O959        O  0.54035213  0.36153459  0.76323226    -0.80000
O960        O  0.41941810  0.31061598  0.77293569    -0.99100
Zr961      Zr  0.49143720  0.50569442  0.80126789     2.21500
Zr962      Zr  0.51348672  0.49060496  0.70762971     2.11100
O963        O  0.55586452  0.46305981  0.73771334    -2.47800
O964        O  0.53819369  0.47345331  0.78409380    -0.79800
O965        O  0.56416812  0.55959594  0.73316323    -0.72000
O966        O  0.43302615  0.42764947  0.78023831    -2.33000
O967        O  0.56135345  0.57521593  0.77908373    -2.29200
O968        O  0.45013683  0.42968670  0.73355694    -0.73800
H969        H  0.44762165  0.53299732  0.70552098     0.78200
H970        H  0.40866352  0.40230006  0.79271640     0.79300
H971        H  0.57512429  0.45117745  0.72774025     0.81500
H972        H  0.58324640  0.60295796  0.79084941     0.79200
H973        H  0.32427914  0.35044721  0.74707304     0.42200
H974        H  0.39050554  0.30525219  0.76161040     0.41200
H975        H  0.56562092  0.37903262  0.74842863     0.40800
H976        H  0.63591673  0.46231360  0.76757510     0.38800
H977        H  0.67612264  0.64428835  0.77267320     0.41900
H978        H  0.61872514  0.68456519  0.74668803     0.36700
H979        H  0.44673238  0.62280945  0.76477852     0.42800
H980        H  0.36534349  0.52974211  0.75499963     0.39200
H981        H  0.68267650  0.51042832  0.75479858     0.44100
H982        H  0.58215798  0.70624470  0.74700605     0.42900
H983        H  0.35880746  0.51683709  0.72357660     0.43000
H984        H  0.43124992  0.28905430  0.76434360     0.43400
O985        O  0.78821650  0.43729584  0.51798474    -0.75500
O986        O  0.87215689  0.49077274  0.51160846    -0.54400
C987        C  0.83303036  0.44510986  0.51345758     0.78200
O988        O  0.71642881  0.57434760  0.93803450    -0.60100
O989        O  0.66374093  0.58107643  0.96839741    -0.53100
C990        C  0.68077337  0.58259070  0.94371329     0.70200
O991        O  0.84508752  0.56077411  0.93695917    -0.74700
O992        O  0.90751356  0.57580734  0.96688519    -0.55200
C993        C  0.88980851  0.57100484  0.94224282     0.76200
O994        O  0.63868682  0.43344794  0.02378582    -0.59800
O995        O  0.60971953  0.48759679  0.01545628    -0.52900
C996        C  0.60210276  0.44166853  0.01946776     0.72800
Zr997      Zr  0.73184009  0.47099812  0.52558990     2.54700
O998        O  0.68633147  0.38650904  0.00550514    -0.80400
O999        O  0.71486973  0.43110398  0.57095149    -0.93800
Zr1000     Zr  0.77218176  0.55284589  0.95938836     2.64700
O1001       O  0.72336401  0.46455007  0.94457469    -0.98800
O1002       O  0.77756650  0.56866113  0.90997397    -0.80800
O1003       O  0.79358596  0.50900667  0.99115666    -0.84200
O1004       O  0.70569028  0.51003440  0.99127484    -2.18900
O1005       O  0.74053010  0.62944363  0.57830230    -0.67600
O1006       O  0.66590440  0.57398522  0.56129150    -0.52100
C1007       C  0.69428662  0.59863411  0.58187663     0.71200
O1008       O  0.93446990  0.71839199  0.00089375    -0.60500
O1009       O  0.95166697  0.65381915  0.50922932    -0.52500
C1010       C  0.96836467  0.70129424  0.50359465     0.73000
O1011       O  0.77157366  0.71592413  0.99887368    -0.71900
O1012       O  0.69183078  0.65046635  0.00946627    -0.50500
C1013       C  0.72246510  0.69743055  0.00278202     0.74400
O1014       O  0.88224580  0.62859575  0.57528039    -0.67200
O1015       O  0.90358277  0.57396231  0.56044769    -0.54400
C1016       C  0.89584304  0.59653834  0.58070869     0.72800
Zr1017     Zr  0.79461944  0.59714591  0.56815549     2.77500
O1018       O  0.81630559  0.64004924  0.61228503    -0.97900
O1019       O  0.76025017  0.53118807  0.60377315    -0.78800
Zr1020     Zr  0.83658656  0.68312245  0.00162269     2.70100
O1021       O  0.87226170  0.75332897  0.53448788    -0.80000
O1022       O  0.85725101  0.72768255  0.95752816    -0.99100
Zr1023     Zr  0.87231489  0.57394696  0.51318711     2.21500
Zr1024     Zr  0.69346897  0.57229692  0.01437730     2.11100
O1025       O  0.77287175  0.63967979  0.53386990    -2.47800
O1026       O  0.86029868  0.63908453  0.53478920    -0.79800
O1027       O  0.71952859  0.53289235  0.54769023    -0.72000
O1028       O  0.84667286  0.61797031  0.98009061    -2.33000
O1029       O  0.80556542  0.53301720  0.54719875    -2.29200
O1030       O  0.76154097  0.61580411  0.98163514    -0.73800
H1031       H  0.67592285  0.48609292  0.98142573     0.78200
H1032       H  0.87298507  0.63597985  0.96657975     0.79300
H1033       H  0.76923218  0.66791437  0.53971272     0.81500
H1034       H  0.81305025  0.51497314  0.56083387     0.79200
H1035       H  0.76899193  0.53599828  0.90120221     0.42200
H1036       H  0.88088422  0.76373023  0.96214500     0.41200
H1037       H  0.87964298  0.73925763  0.55105569     0.40800
H1038       H  0.82038006  0.67398568  0.60879235     0.38800
H1039       H  0.78441299  0.51904476  0.60556028     0.41900
H1040       H  0.73835536  0.41796152  0.57241272     0.36700
H1041       H  0.69220804  0.39301364  0.98548228     0.42800
H1042       H  0.69538379  0.46289546  0.93376743     0.39200
H1043       H  0.78602112  0.62182150  0.62415365     0.44100
H1044       H  0.68119478  0.40019880  0.56931454     0.42900
H1045       H  0.74500172  0.46073092  0.93078484     0.43000
H1046       H  0.87830954  0.71649338  0.94782894     0.43400
O1047       O  0.64343801  0.21539829  0.49962877    -0.75500
O1048       O  0.61252651  0.13004416  0.49879366    -0.54400
C1049       C  0.60600822  0.16946935  0.49919275     0.78200
O1050       O  0.87179983  0.26393212  0.93872821    -0.60100
O1051       O  0.90396635  0.34103128  0.95551526    -0.53100
C1052       C  0.89399322  0.31165260  0.93464071     0.70200
O1053       O  0.71812671  0.14044754  0.92223656    -0.74700
O1054       O  0.65923472  0.08518280  0.95261310    -0.55200
C1055       C  0.67758110  0.09879656  0.92782050     0.76200
O1056       O  0.78195663  0.35489933  0.00850841    -0.59800
O1057       O  0.86646918  0.38607774  0.00654612    -0.52900
C1058       C  0.82753552  0.39218039  0.00954567     0.72800
Zr1059     Zr  0.73417529  0.26804215  0.50095817     2.54700
O1060       O  0.71320952  0.30346230  0.95941140    -0.80400
O1061       O  0.69747494  0.29719969  0.53588155    -0.93800
Zr1062     Zr  0.78204444  0.21626004  0.94370238     2.64700
O1063       O  0.75742744  0.26954912  0.91841196    -0.98800
O1064       O  0.80241610  0.21060114  0.89580265    -0.80800
O1065       O  0.70968238  0.19615191  0.97025992    -0.84200
O1066       O  0.80002005  0.28719462  0.97150252    -2.18900
O1067       O  0.86157764  0.27038321  0.57793956    -0.67600
O1068       O  0.91077418  0.33540990  0.54871976    -0.52100
C1069       C  0.89935036  0.31440794  0.57298358     0.71200
O1070       O  0.77289905  0.05878482  0.99789898    -0.60500
O1071       O  0.69649724  0.04770222  0.50000811    -0.52500
C1072       C  0.72720860  0.03028375  0.49913472     0.73000
O1073       O  0.93262508  0.21945160  0.99735279    -0.71900
O1074       O  0.94721572  0.30110927  0.99920583    -0.50500
C1075       C  0.96347398  0.26931839  0.99788931     0.74400
O1076       O  0.73496264  0.12182071  0.56377113    -0.67200
O1077       O  0.65954223  0.09533003  0.54621643    -0.54400
C1078       C  0.68777370  0.10151132  0.56709428     0.72800
Zr1079     Zr  0.78515040  0.21176782  0.55603568     2.77500
O1080       O  0.79377798  0.19305720  0.60390401    -0.97900
O1081       O  0.74434834  0.24947259  0.58171810    -0.78800
Zr1082     Zr  0.83483586  0.15759647  0.99839816     2.70100
O1083       O  0.86606363  0.12557280  0.53716122    -0.80000
O1084       O  0.86630858  0.13053388  0.95979516    -0.99100
Zr1085     Zr  0.69497095  0.12720350  0.49936546     2.21500
Zr1086     Zr  0.86931934  0.30392896  0.00123696     2.11100
O1087       O  0.85612724  0.23039915  0.52838156    -2.47800
O1088       O  0.76702688  0.14256525  0.52677599    -0.79800
O1089       O  0.80203959  0.28460374  0.53034863    -0.72000
O1090       O  0.76387396  0.14332513  0.97078851    -2.33000
O1091       O  0.71520586  0.19732519  0.52904295    -2.29200
O1092       O  0.85016497  0.23123610  0.97261529    -0.73800
H1093       H  0.80818237  0.31692811  0.96056460     0.78200
H1094       H  0.75654618  0.11496050  0.95903041     0.79300
H1095       H  0.88464241  0.23691983  0.53950249     0.81500
H1096       H  0.68655816  0.18995860  0.54030884     0.79200
H1097       H  0.77445555  0.20830138  0.88471414     0.42200
H1098       H  0.85203379  0.09350648  0.96264477     0.41200
H1099       H  0.89056496  0.15594493  0.54753156     0.40800
H1100       H  0.79739116  0.16254487  0.60351980     0.38800
H1101       H  0.76975008  0.27187493  0.59527590     0.41900
H1102       H  0.72549169  0.31866263  0.54841513     0.36700
H1103       H  0.69657309  0.32142498  0.96693336     0.42800
H1104       H  0.78523884  0.28933294  0.90515720     0.39200
H1105       H  0.76064804  0.18146871  0.61271014     0.44100
H1106       H  0.67505418  0.26656623  0.54702773     0.42900
H1107       H  0.72875048  0.24555480  0.90692663     0.43000
H1108       H  0.84832741  0.13312568  0.94359372     0.43400
O1109       O  0.35290540  0.79152783  0.48127480    -0.75500
O1110       O  0.38442792  0.87685477  0.48109883    -0.54400
C1111       C  0.39072577  0.83736035  0.48102737     0.78200
O1112       O  0.09822492  0.72783643  0.94130175    -0.60100
O1113       O  0.07387979  0.65162894  0.95727984    -0.53100
C1114       C  0.08008835  0.68071484  0.93670598     0.70200
O1115       O  0.24051815  0.86475297  0.91648758    -0.74700
O1116       O  0.31730381  0.89181033  0.93404407    -0.55200
C1117       C  0.28744588  0.88307734  0.91333395     0.76200
O1118       O  0.20672974  0.64531158  0.98850388    -0.59800
O1119       O  0.12327022  0.61320125  0.99715398    -0.52900
C1120       C  0.16200366  0.60739690  0.99247164     0.72800
Zr1121     Zr  0.26199364  0.73777338  0.48442761     2.54700
O1122       O  0.28354265  0.70646530  0.94664550    -0.80400
O1123       O  0.30098735  0.70668449  0.51638761    -0.93800
Zr1124     Zr  0.18792788  0.78363798  0.93737633     2.64700
O1125       O  0.20210876  0.73556205  0.90220995    -0.98800
O1126       O  0.15386505  0.79688661  0.89511465    -0.80800
O1127       O  0.26696613  0.80172693  0.95631382    -0.84200
O1128       O  0.18231621  0.71587624  0.96445668    -2.18900
O1129       O  0.14924128  0.74210907  0.56929099    -0.67600
O1130       O  0.10666518  0.66820215  0.54576139    -0.52100
C1131       C  0.12126699  0.69415777  0.56830731     0.71200
O1132       O  0.21391287  0.93891334  0.99801236    -0.60500
O1133       O  0.29881467  0.95642309  0.48404476    -0.52500
C1134       C  0.26871132  0.97268121  0.49103770     0.73000
O1135       O  0.05361783  0.77877270  0.00089341    -0.71900
O1136       O  0.04058189  0.69768475  0.00240727    -0.50500
C1137       C  0.02352833  0.72891962  0.00229141     0.74400
O1138       O  0.27121756  0.88769171  0.54193688    -0.67200
O1139       O  0.34645889  0.91881245  0.52465772    -0.54400
C1140       C  0.31822275  0.90930886  0.54596626     0.72800
Zr1141     Zr  0.22434354  0.79695536  0.54469236     2.77500
O1142       O  0.22656041  0.81769033  0.59338416    -0.97900
O1143       O  0.28451300  0.78390537  0.57074799    -0.78800
Zr1144     Zr  0.15091495  0.84052122  0.99871698     2.70100
O1145       O  0.13208372  0.87441503  0.53552895    -0.80000
O1146       O  0.11681278  0.86958439  0.96242901    -0.99100
Zr1147     Zr  0.30115152  0.87785836  0.48193321     2.21500
Zr1148     Zr  0.11853383  0.69471985  0.99930026     2.11100
O1149       O  0.14615910  0.77499793  0.52323231    -2.47800
O1150       O  0.23439000  0.86251424  0.51468228    -0.79800
O1151       O  0.20149077  0.72193022  0.51942919    -0.72000
O1152       O  0.21564975  0.85693002  0.96559017    -2.33000
O1153       O  0.28759280  0.80954236  0.51230807    -2.29200
O1154       O  0.12709801  0.76605581  0.97213042    -0.73800
H1155       H  0.17348909  0.68729187  0.95276024     0.78200
H1156       H  0.21988981  0.88664093  0.95596619     0.79300
H1157       H  0.11893857  0.76908707  0.53552532     0.81500
H1158       H  0.31826980  0.81793908  0.52174522     0.79200
H1159       H  0.13658338  0.81529802  0.90101993     0.42200
H1160       H  0.10060559  0.88597642  0.97232018     0.41200
H1161       H  0.15436387  0.87458698  0.55020560     0.40800
H1162       H  0.19728279  0.82223450  0.59663500     0.38800
H1163       H  0.29074219  0.76043780  0.55967072     0.41900
H1164       H  0.30373965  0.68056966  0.50572723     0.36700
H1165       H  0.29628147  0.68507714  0.95445557     0.42800
H1166       H  0.21954356  0.76001412  0.88695265     0.39200
H1167       H  0.21894928  0.78677171  0.60404356     0.44100
H1168       H  0.27471842  0.68707339  0.53046364     0.42900
H1169       H  0.22750475  0.72829320  0.90992393     0.43000
H1170       H  0.14656401  0.89811371  0.95323569     0.43400
O1171       O  0.61140410  0.87507107  0.91883019    -0.75500
O1172       O  0.56195205  0.89821672  0.94072956    -0.54400
C1173       C  0.58127742  0.89197606  0.91828930     0.78200
O1174       O  0.42943416  0.64200083  0.98799284    -0.60100
O1175       O  0.48062785  0.60916584  0.99302591    -0.53100
C1176       C  0.43594060  0.60357532  0.99091032     0.70200
O1177       O  0.43193487  0.79092171  0.47980969    -0.74700
O1178       O  0.48667700  0.87538550  0.48523174    -0.55200
C1179       C  0.44087462  0.83687661  0.48163294     0.76200
O1180       O  0.61235648  0.73017794  0.93140596    -0.59800
O1181       O  0.55603871  0.65470437  0.94685896    -0.52900
C1182       C  0.57924444  0.68447780  0.92635349     0.72800
Zr1183     Zr  0.58590535  0.79143519  0.93570824     2.54700
O1184       O  0.52122542  0.75588745  0.90050743    -0.80400
O1185       O  0.63978263  0.80828424  0.89535709    -0.93800
Zr1186     Zr  0.46772451  0.73657468  0.48419516     2.64700
O1187       O  0.41932773  0.70680359  0.94113224    -0.98800
O1188       O  0.39806119  0.70741491  0.51675316    -0.80800
O1189       O  0.52424035  0.80457806  0.95788026    -0.84200
O1190       O  0.52373218  0.72002547  0.96093769    -2.18900
O1191       O  0.71208243  0.77609298  0.00028760    -0.67600
O1192       O  0.64483973  0.69483248  0.99621014    -0.52100
C1193       C  0.69280704  0.72630251  0.99911464     0.71200
O1194       O  0.61018178  0.87228062  0.55542634    -0.60500
O1195       O  0.57157491  0.90848113  0.53538497    -0.52500
C1196       C  0.59129454  0.90084204  0.55693748     0.73000
O1197       O  0.53790687  0.70441570  0.56697530    -0.71900
O1198       O  0.55511400  0.65524966  0.53881844    -0.50500
C1199       C  0.54298207  0.66612406  0.56237727     0.74400
O1200       O  0.71211465  0.93751807  0.99979979    -0.67200
O1201       O  0.65019693  0.95421800  0.49362447    -0.54400
C1202       C  0.69753344  0.97075153  0.49739207     0.72800
Zr1203     Zr  0.67703735  0.83830930  0.99852675     2.77500
O1204       O  0.72581564  0.86351798  0.54157257    -0.97900
O1205       O  0.74387500  0.87178090  0.96386258    -0.78800
Zr1206     Zr  0.55860476  0.78326984  0.54588396     2.70100
O1207       O  0.59225092  0.78307646  0.59086929    -0.80000
O1208       O  0.49219179  0.77890838  0.57552468    -0.99100
Zr1209     Zr  0.57054109  0.87553951  0.48889623     2.21500
Zr1210     Zr  0.56395586  0.69251619  0.99322576     2.11100
O1211       O  0.61648075  0.76577517  0.52291137    -2.47800
O1212       O  0.61793511  0.85352137  0.51964156    -0.79800
O1213       O  0.62780910  0.76815019  0.96861932    -0.72000
O1214       O  0.51088691  0.80344882  0.51565514    -2.33000
O1215       O  0.63050250  0.85935752  0.96703571    -2.29200
O1216       O  0.51023044  0.71426559  0.51657987    -0.73800
H1217       H  0.50396131  0.69345070  0.94845150     0.78200
H1218       H  0.48804151  0.81092732  0.52544496     0.79300
H1219       H  0.63281582  0.75563251  0.53632349     0.81500
H1220       H  0.65583386  0.89014103  0.95804487     0.79200
H1221       H  0.40463556  0.68808245  0.53092414     0.42200
H1222       H  0.49499825  0.81270138  0.57418377     0.41200
H1223       H  0.62719371  0.79146142  0.58685752     0.40800
H1224       H  0.71145079  0.88112418  0.55201799     0.38800
H1225       H  0.76851198  0.86250930  0.97059946     0.41900
H1226       H  0.67404345  0.83345545  0.90165114     0.36700
H1227       H  0.53901705  0.77140179  0.88296372     0.42800
H1228       H  0.39718387  0.66951234  0.94311556     0.39200
H1229       H  0.71351743  0.83080681  0.55149864     0.44100
H1230       H  0.63091058  0.82720685  0.88209594     0.42900
H1231       H  0.39595431  0.72017567  0.94156379     0.43000
H1232       H  0.46022445  0.75524521  0.56626884     0.43400
O1233       O  0.20823541  0.56647770  0.49069418    -0.75500
O1234       O  0.12362641  0.51288492  0.49263292    -0.54400
C1235       C  0.16302813  0.55865232  0.49177815     0.78200
O1236       O  0.24633748  0.36283928  0.93496582    -0.60100
O1237       O  0.32258958  0.41060467  0.95147684    -0.53100
C1238       C  0.29345019  0.38797500  0.93080887     0.70200
O1239       O  0.12217236  0.38507810  0.92444498    -0.74700
O1240       O  0.10192236  0.43884830  0.94307738    -0.55200
C1241       C  0.10878428  0.41766475  0.92180253     0.76200
O1242       O  0.34907642  0.56218375  0.98969398    -0.59800
O1243       O  0.37767741  0.50723095  0.99564280    -0.52900
C1244       C  0.38538894  0.55332953  0.99209377     0.72800
Zr1245     Zr  0.26091093  0.52829594  0.49074556     2.54700
O1246       O  0.28990149  0.59069101  0.95446392    -0.80400
O1247       O  0.29782437  0.59564812  0.52486355    -0.93800
Zr1248     Zr  0.20486165  0.41096041  0.93913703     2.64700
O1249       O  0.25152274  0.48079935  0.90645296    -0.98800
O1250       O  0.19116109  0.37893837  0.89220795    -0.80800
O1251       O  0.19170987  0.47207672  0.96210380    -0.84200
O1252       O  0.27613391  0.47041804  0.96490098    -2.18900
O1253       O  0.27239845  0.42135454  0.57302548    -0.67600
O1254       O  0.32883329  0.42069131  0.54284449    -0.52100
C1255       C  0.31175368  0.41868171  0.56752891     0.71200
O1256       O  0.05185084  0.27826860  0.99969965    -0.60500
O1257       O  0.04320214  0.34802188  0.49392595    -0.52500
C1258       C  0.02566626  0.29981423  0.49785333     0.73000
O1259       O  0.21320584  0.27662473  0.00190111    -0.71900
O1260       O  0.29428781  0.34412839  0.00021732    -0.50500
C1261       C  0.26286651  0.29597478  0.00175126     0.74400
O1262       O  0.11720941  0.38923363  0.55811877    -0.67200
O1263       O  0.08844348  0.43432054  0.53759535    -0.54400
C1264       C  0.09585423  0.41561199  0.55974843     0.72800
Zr1265     Zr  0.20688547  0.42973409  0.55105483     2.77500
O1266       O  0.17725212  0.39749687  0.59747492    -0.97900
O1267       O  0.23103270  0.50660580  0.57729111    -0.78800
Zr1268     Zr  0.14949658  0.31109232  0.99978838     2.70100
O1269       O  0.11821133  0.25474580  0.53915737    -0.80000
O1270       O  0.12252741  0.24909996  0.96286693    -0.99100
Zr1271     Zr  0.12209308  0.42849014  0.49214161     2.21500
Zr1272     Zr  0.29377079  0.42242587  0.99764658     2.11100
O1273       O  0.22372769  0.37251704  0.52647313    -2.47800
O1274       O  0.13899931  0.37542371  0.52255533    -0.79800
O1275       O  0.27852859  0.48080388  0.52293768    -0.72000
O1276       O  0.13368501  0.36277481  0.96896518    -2.33000
O1277       O  0.19220487  0.48217652  0.52092353    -2.29200
O1278       O  0.22130273  0.36295013  0.97148565    -0.73800
H1279       H  0.30490082  0.48950102  0.95293345     0.78200
H1280       H  0.10309153  0.33685501  0.96055364     0.79300
H1281       H  0.23074713  0.35231776  0.53906112     0.81500
H1282       H  0.18566390  0.50495962  0.53151577     0.79200
H1283       H  0.18495480  0.40239726  0.88099030     0.42200
H1284       H  0.10047016  0.21592074  0.97206229     0.41200
H1285       H  0.11507982  0.27520995  0.55399019     0.40800
H1286       H  0.16492091  0.36056999  0.59651732     0.38800
H1287       H  0.26389181  0.51546395  0.58541265     0.41900
H1288       H  0.31511965  0.58463810  0.53792210     0.36700
H1289       H  0.31655025  0.58751452  0.94479386     0.42800
H1290       H  0.27822919  0.47544800  0.89878444     0.39200
H1291       H  0.20741952  0.41190051  0.60926956     0.44100
H1292       H  0.26886449  0.59256092  0.53549679     0.42900
H1293       H  0.26965012  0.51211269  0.91746372     0.43000
H1294       H  0.09937618  0.25527986  0.95163173     0.43400
O1295       O  0.43222155  0.16223266  0.92291339    -0.75500
O1296       O  0.42935261  0.09913021  0.94968890    -0.54400
C1297       C  0.43239905  0.12066428  0.92609257     0.78200
O1298       O  0.55916483  0.35319715  0.01695803    -0.60100
O1299       O  0.50654186  0.38508199  0.01570891    -0.53100
C1300       C  0.55170119  0.39114255  0.01742435     0.70200
O1301       O  0.56344829  0.21463202  0.50388765    -0.74700
O1302       O  0.51009337  0.13026278  0.49714569    -0.55200
C1303       C  0.55071293  0.16387928  0.00028297     0.76200
O1304       O  0.39097336  0.27826200  0.94862853    -0.59800
O1305       O  0.43544761  0.35153719  0.96906676    -0.52900
C1306       C  0.41868006  0.32622508  0.94674696     0.72800
Zr1307     Zr  0.42998427  0.22753163  0.94926638     2.54700
O1308       O  0.50784243  0.28918106  0.92611698    -0.80400
O1309       O  0.39857754  0.22517470  0.90299690    -0.93800
Zr1310     Zr  0.52185013  0.26206324  0.01131272     2.64700
O1311       O  0.59261535  0.30332793  0.97916523    -0.98800
O1312       O  0.58131757  0.28550640  0.54748891    -0.80800
O1313       O  0.47829115  0.20299119  0.97592156    -0.84200
O1314       O  0.47830246  0.28950769  0.98274851    -2.18900
O1315       O  0.27407135  0.21795177  0.99931512    -0.67600
O1316       O  0.33995415  0.29786361  0.00914033    -0.52100
C1317       C  0.29254988  0.26693138  0.00382715     0.71200
O1318       O  0.37014289  0.10847246  0.55876167    -0.60500
O1319       O  0.41979115  0.08354462  0.54128790    -0.52500
C1320       C  0.39781466  0.08925908  0.56250932     0.73000
O1321       O  0.38434007  0.25208776  0.58303369    -0.71900
O1322       O  0.42582789  0.32891688  0.56194041    -0.50500
C1323       C  0.40886735  0.30048291  0.58380143     0.74400
O1324       O  0.27319256  0.05869880  0.99625874    -0.67200
O1325       O  0.34618044  0.04905684  0.49305640    -0.54400
C1326       C  0.29817000  0.03141802  0.49406098     0.72800
Zr1327     Zr  0.31019952  0.15685881  0.99776492     2.77500
O1328       O  0.25250605  0.12387215  0.53939526    -0.97900
O1329       O  0.26320958  0.13844566  0.95511303    -0.78800
Zr1330     Zr  0.41119717  0.19926084  0.56068228     2.70100
O1331       O  0.37616692  0.17397329  0.60710019    -0.80000
O1332       O  0.48435884  0.21762510  0.58856980    -0.99100
Zr1333     Zr  0.42110429  0.12383044  0.99728829     2.21500
Zr1334     Zr  0.42188358  0.30195379  0.01190204     2.11100
O1335       O  0.36236216  0.22392030  0.53375658    -2.47800
O1336       O  0.36587692  0.13741970  0.52634894    -0.79800
O1337       O  0.37297256  0.23637755  0.97840464    -0.72000
O1338       O  0.46993960  0.19061191  0.53214687    -2.33000
O1339       O  0.37079448  0.14811347  0.96977522    -2.29200
O1340       O  0.47024235  0.27738779  0.53942220    -0.73800
H1341       H  0.50207189  0.32099778  0.97376897     0.78200
H1342       H  0.48982782  0.18092094  0.54302475     0.79300
H1343       H  0.33777395  0.22775541  0.54424238     0.81500
H1344       H  0.35288454  0.12307855  0.95574589     0.79200
H1345       H  0.61467973  0.31204540  0.54045099     0.42200
H1346       H  0.50751611  0.25472502  0.58666509     0.41200
H1347       H  0.39751433  0.20235578  0.61958233     0.40800
H1348       H  0.22823033  0.08835284  0.53413503     0.38800
H1349       H  0.28675461  0.16510008  0.94207571     0.41900
H1350       H  0.36618721  0.19260848  0.90218648     0.36700
H1351       H  0.50983712  0.27141838  0.90957023     0.42800
H1352       H  0.58249401  0.28008252  0.96324971     0.39200
H1353       H  0.27185790  0.12060755  0.55469001     0.44100
H1354       H  0.42135135  0.22102809  0.89019123     0.42900
H1355       H  0.59207137  0.33355757  0.97204057     0.43000
H1356       H  0.47353383  0.21257506  0.60807589     0.43400
C1357       C  0.38763700  0.30828543  0.63318218    -0.02100
C1358       C  0.42390776  0.32193789  0.61179892     0.07600
C1359       C  0.47450899  0.34086755  0.61905215    -0.02200
C1360       C  0.48793156  0.34457329  0.64685028    -0.02200
C1361       C  0.45416826  0.33985617  0.66777237     0.07700
C1362       C  0.40309208  0.31982325  0.66093983    -0.02400
Br1363     Br  0.35444825  0.30697697  0.68955151    -0.00900
Br1364     Br  0.31696882  0.27278028  0.62458403    -0.01000
Br1365     Br  0.54895134  0.34650677  0.65697112    -0.01000
Br1366     Br  0.52551100  0.35869473  0.59109310    -0.00900
C1367       C  0.41089659  0.34017065  0.86943483    -0.02100
C1368       C  0.46149399  0.37343353  0.86205079     0.07600
C1369       C  0.49829480  0.39275737  0.88277440    -0.02200
C1370       C  0.48445618  0.38118450  0.91082971    -0.02200
C1371       C  0.43335225  0.34861653  0.91841516     0.07700
C1372       C  0.39679057  0.32823619  0.89733409    -0.02400
Br1373     Br  0.32656617  0.28409782  0.90658680    -0.00900
Br1374     Br  0.36093766  0.31074042  0.84104468    -0.01000
Br1375     Br  0.53635396  0.40907138  0.93828864    -0.01000
Br1376     Br  0.56823867  0.43340270  0.87211164    -0.00900
C1377       C  0.66041526  0.53608798  0.62065223    -0.02100
C1378       C  0.67889412  0.58648232  0.61125566     0.07600
C1379       C  0.69946778  0.62632142  0.63113970    -0.02200
C1380       C  0.69451672  0.61474322  0.65959061    -0.02200
C1381       C  0.67168590  0.56411300  0.66847031     0.07700
C1382       C  0.66123206  0.52640066  0.64888845    -0.02400
Br1383     Br  0.65061249  0.46232966  0.66201635    -0.00900
Br1384     Br  0.63749705  0.48023767  0.59537557    -0.01000
Br1385     Br  0.72247071  0.66740639  0.68690765    -0.01000
Br1386     Br  0.73859144  0.69707835  0.62018814    -0.00900
C1387       C  0.67301392  0.60634624  0.86868700    -0.02100
C1388       C  0.62105963  0.57355823  0.86409585     0.07600
C1389       C  0.58772237  0.55741249  0.88779831    -0.02200
C1390       C  0.60707941  0.56647888  0.91474069    -0.02200
C1391       C  0.65911534  0.59227361  0.91870267     0.07700
C1392       C  0.69150025  0.61676414  0.89582858    -0.02400
Br1393     Br  0.76163662  0.66651483  0.90210379    -0.00900
Br1394     Br  0.71933883  0.63973910  0.83842653    -0.01000
Br1395     Br  0.56211813  0.54193580  0.94635074    -0.01000
Br1396     Br  0.51462014  0.52074645  0.88570469    -0.00900
C1397       C  0.57736842  0.65113305  0.63363744    -0.02100
C1398       C  0.53032012  0.61756355  0.64563302     0.07600
C1399       C  0.48697918  0.59699909  0.62902380    -0.02200
C1400       C  0.49122597  0.60785947  0.60047783    -0.02200
C1401       C  0.53905367  0.63814726  0.58804673     0.07700
C1402       C  0.58201611  0.65996337  0.60494758    -0.02400
Br1403     Br  0.64645927  0.70751060  0.58876730    -0.00900
Br1404     Br  0.63335043  0.69058067  0.65729692    -0.01000
Br1405     Br  0.43146909  0.58591980  0.57876419    -0.01000
Br1406     Br  0.42151597  0.55920717  0.64619931    -0.00900
C1407       C  0.50555760  0.65546782  0.85940688    -0.02100
C1408       C  0.54091810  0.66101686  0.83959140     0.07600
C1409       C  0.59104362  0.68045210  0.84798502    -0.02200
C1410       C  0.60336401  0.68729074  0.87630413    -0.02200
C1411       C  0.56487363  0.67087174  0.89673889     0.07700
C1412       C  0.51510063  0.65395547  0.88759858    -0.02400
Br1413     Br  0.45808876  0.62659724  0.91192307    -0.00900
Br1414     Br  0.44909478  0.66079589  0.84701148    -0.01000
Br1415     Br  0.67310709  0.71816688  0.88675814    -0.01000
Br1416     Br  0.64286000  0.70048891  0.82038006    -0.00900
C1417       C  0.32800975  0.39794685  0.64239766    -0.02100
C1418       C  0.38073559  0.42744085  0.64583962     0.07600
C1419       C  0.41173994  0.44428318  0.62123257    -0.02200
C1420       C  0.38987738  0.43928995  0.59500371    -0.02200
C1421       C  0.33724624  0.41333070  0.59241564     0.07700
C1422       C  0.30737219  0.38762984  0.61579656    -0.02400
Br1423     Br  0.23862986  0.33339799  0.61097202    -0.00900
Br1424     Br  0.28222428  0.37019769  0.67338108    -0.01000
Br1425     Br  0.43246656  0.46845081  0.56272285    -0.01000
Br1426     Br  0.48462048  0.47538265  0.62133756    -0.00900
C1427       C  0.28400556  0.36621940  0.87893767    -0.02100
C1428       C  0.31151283  0.39959694  0.90120525     0.07600
C1429       C  0.34914681  0.44959347  0.89420481    -0.02200
C1430       C  0.35490582  0.46642597  0.86682890    -0.02200
C1431       C  0.33542909  0.43242414  0.84468460     0.07700
C1432       C  0.29796673  0.38193253  0.85089700    -0.02400
Br1433     Br  0.26357862  0.33615539  0.82106857    -0.00900
Br1434     Br  0.22740712  0.29876545  0.88595741    -0.01000
Br1435     Br  0.38511225  0.53731127  0.85909046    -0.01000
Br1436     Br  0.39261722  0.49743452  0.92135989    -0.00900
C1437       C  0.90309322  0.61610367  0.63230997    -0.02100
C1438       C  0.89468524  0.58113009  0.61052640     0.07600
C1439       C  0.87735041  0.52955885  0.61804348    -0.02200
C1440       C  0.87200712  0.51502106  0.64605213    -0.02200
C1441       C  0.88867875  0.55160125  0.66697624     0.07700
C1442       C  0.89893706  0.60068092  0.66024507    -0.02400
Br1443     Br  0.90703821  0.64611609  0.68988337    -0.00900
Br1444     Br  0.92524229  0.68704131  0.62519414    -0.01000
Br1445     Br  0.84114506  0.44430773  0.65677561    -0.01000
Br1446     Br  0.86057799  0.47705227  0.59108912    -0.00900
C1447       C  0.96148224  0.54602141  0.88699456    -0.02100
C1448       C  0.94589056  0.56223616  0.86276410     0.07600
C1449       C  0.92231186  0.59140025  0.86691773    -0.02200
C1450       C  0.91272470  0.60170887  0.89382178    -0.02200
C1451       C  0.92050220  0.57828151  0.91701149     0.07700
C1452       C  0.94777236  0.55332739  0.91368851    -0.02400
Br1453     Br  0.96522260  0.52802687  0.94592418    -0.00900
Br1454     Br  0.99957848  0.51090569  0.88592682    -0.01000
Br1455     Br  0.89080316  0.65057721  0.89929420    -0.01000
Br1456     Br  0.90142063  0.61747817  0.83657894    -0.00900
C1457       C  0.94645662  0.41471426  0.62788326    -0.02100
C1458       C  0.93206800  0.38291528  0.65220590     0.07600
C1459       C  0.92138568  0.33209533  0.64893774    -0.02200
C1460       C  0.92148921  0.31317529  0.62247116    -0.02200
C1461       C  0.92627289  0.34208409  0.59845409     0.07700
C1462       C  0.94262620  0.39401210  0.60140940    -0.02400
Br1463     Br  0.95877716  0.43733564  0.56909489    -0.00900
Br1464     Br  0.97229325  0.48757835  0.62859091    -0.01000
Br1465     Br  0.91456478  0.24645376  0.61913873    -0.01000
Br1466     Br  0.90369524  0.28554131  0.67981530    -0.00900
C1467       C  0.89787937  0.38428517  0.86953085    -0.02100
C1468       C  0.91586707  0.36364061  0.84968596     0.07600
C1469       C  0.92041965  0.32150123  0.85686366    -0.02200
C1470       C  0.91319832  0.30422347  0.88448714    -0.02200
C1471       C  0.90303702  0.33057432  0.90548456     0.07700
C1472       C  0.89342248  0.36959452  0.89741248    -0.02400
Br1473     Br  0.87015335  0.40092748  0.92357420    -0.00900
Br1474     Br  0.87389969  0.42864298  0.85748679    -0.01000
Br1475     Br  0.91685391  0.24376297  0.89257581    -0.01000
Br1476     Br  0.93428235  0.28632516  0.82845352    -0.00900
C1477       C  0.06857128  0.39095011  0.60960864    -0.02100
C1478       C  0.08568991  0.42804213  0.58808959     0.07600
C1479       C  0.10350124  0.47918269  0.59528935    -0.02200
C1480       C  0.10678407  0.49287504  0.62316551    -0.02200
C1481       C  0.08769407  0.45637668  0.64440771     0.07700
C1482       C  0.06854016  0.40493075  0.63749471    -0.02400
Br1483     Br  0.04334993  0.35409448  0.66624810    -0.00900
Br1484     Br  0.04412101  0.32052161  0.60092495    -0.01000
Br1485     Br  0.14264839  0.56266886  0.63318307    -0.01000
Br1486     Br  0.12523903  0.53188937  0.56755862    -0.00900
C1487       C  0.15764596  0.49269213  0.85585008    -0.02100
C1488       C  0.12772375  0.45658775  0.83620966     0.07600
C1489       C  0.09502833  0.40651867  0.84471860    -0.02200
C1490       C  0.08538700  0.39470728  0.87287930    -0.02200
C1491       C  0.10873039  0.43339098  0.89296343     0.07700
C1492       C  0.14646088  0.48252205  0.88413722    -0.02400
Br1493     Br  0.18538222  0.53493923  0.91036029    -0.00900
Br1494     Br  0.21693312  0.55301279  0.84282009    -0.01000
Br1495     Br  0.04243291  0.32474966  0.88364226    -0.01000
Br1496     Br  0.06442180  0.35502477  0.81696330    -0.00900
C1497       C  0.14818076  0.67140805  0.63973127    -0.02100
C1498       C  0.10671607  0.66687583  0.65425164     0.07600
C1499       C  0.07036327  0.67244184  0.63981830    -0.02200
C1500       C  0.07090504  0.67432926  0.61083084    -0.02200
C1501       C  0.10862025  0.67138846  0.59596912     0.07700
C1502       C  0.14814168  0.67129952  0.61068057    -0.02400
Br1503     Br  0.20366841  0.67368740  0.59075806    -0.00900
Br1504     Br  0.20616418  0.68198416  0.66014123    -0.01000
Br1505     Br  0.02352961  0.68584011  0.59107113    -0.01000
Br1506     Br  0.02500903  0.68453313  0.66089220    -0.00900
C1507       C  0.10361427  0.63903200  0.89982989    -0.02100
C1508       C  0.07794736  0.66443701  0.90756099     0.07600
C1509       C  0.06118769  0.68460660  0.88644562    -0.02200
C1510       C  0.06826969  0.67727288  0.85828490    -0.02200
C1511       C  0.09707912  0.65480817  0.85097473     0.07700
C1512       C  0.11842431  0.64067947  0.87233335    -0.02400
Br1513     Br  0.17147961  0.62734910  0.86380720    -0.00900
Br1514     Br  0.11712294  0.59943338  0.92571929    -0.01000
Br1515     Br  0.03811663  0.69731956  0.83003422    -0.01000
Br1516     Br  0.02630959  0.72013379  0.89607608    -0.00900
C1517       C  0.37898553  0.89321351  0.61062859    -0.02100
C1518       C  0.35696665  0.90742127  0.63177013     0.07600
C1519       C  0.32076662  0.92055564  0.62456979    -0.02200
C1520       C  0.30951401  0.92297755  0.59657132    -0.02200
C1521       C  0.33579528  0.91396436  0.57512967     0.07700
C1522       C  0.37085215  0.89903544  0.58260651    -0.02400
Br1523     Br  0.40639631  0.88341181  0.55505397    -0.00900
Br1524     Br  0.41501412  0.85901224  0.62029214    -0.01000
Br1525     Br  0.25587904  0.93640301  0.58813669    -0.01000
Br1526     Br  0.28498117  0.93296851  0.65323022    -0.00900
C1527       C  0.29341545  0.90600420  0.83598380    -0.02100
C1528       C  0.31054440  0.87399233  0.82655723     0.07600
C1529       C  0.31518630  0.84197947  0.84565601    -0.02200
C1530       C  0.31579990  0.85083834  0.87415151    -0.02200
C1531       C  0.30347513  0.88683793  0.88403779     0.07700
C1532       C  0.28873379  0.91168674  0.86452895    -0.02400
Br1533     Br  0.26049112  0.95213342  0.87663134    -0.00900
Br1534     Br  0.27360128  0.93873723  0.80900226    -0.01000
Br1535     Br  0.33087845  0.81140915  0.89933877    -0.01000
Br1536     Br  0.31351674  0.78223711  0.83177727    -0.00900
C1537       C  0.60124689  0.90095906  0.60848452    -0.02100
C1538       C  0.58715919  0.91864184  0.58495949     0.07600
C1539       C  0.56230610  0.94604683  0.58917732    -0.02200
C1540       C  0.54509776  0.94847051  0.61573705    -0.02200
C1541       C  0.54801848  0.91897372  0.63813394     0.07700
C1542       C  0.57748487  0.89595364  0.63405926    -0.02400
Br1543     Br  0.58458247  0.85498497  0.66218662    -0.00900
Br1544     Br  0.65925309  0.89210130  0.60765486    -0.01000
Br1545     Br  0.51916588  0.99436465  0.61947282    -0.01000
Br1546     Br  0.55457866  0.98364680  0.55910314    -0.00900
C1547       C  0.59905508  0.91719977  0.86788238    -0.02100
C1548       C  0.56403189  0.89636738  0.89015232     0.07600
C1549       C  0.51244055  0.86625117  0.88384661    -0.02200
C1550       C  0.49671484  0.85653279  0.85624195    -0.02200
C1551       C  0.53060878  0.88189235  0.83423768     0.07700
C1552       C  0.58236811  0.91138918  0.84024668    -0.02400
Br1553     Br  0.63060110  0.94334684  0.81071171    -0.00900
Br1554     Br  0.67038022  0.95353286  0.87500874    -0.01000
Br1555     Br  0.42936625  0.80352996  0.84819370    -0.01000
Br1556     Br  0.46251755  0.83525055  0.91271963    -0.00900
C1557       C  0.65421810  0.12409174  0.63849832    -0.02100
C1558       C  0.65534533  0.08629913  0.65432313     0.07600
C1559       C  0.67005621  0.05438817  0.64140975    -0.02200
C1560       C  0.68005684  0.05874953  0.61270829    -0.02200
C1561       C  0.66917572  0.09030745  0.59614712     0.07700
C1562       C  0.65557595  0.12273947  0.60955436    -0.02400
Br1563     Br  0.63852734  0.16542985  0.58897889    -0.00900
Br1564     Br  0.65484293  0.17941166  0.65772612    -0.01000
Br1565     Br  0.70979762  0.02277593  0.59603101    -0.01000
Br1566     Br  0.67824972  0.00653388  0.66345243    -0.00900
C1567       C  0.68136451  0.07410487  0.87873047    -0.02100
C1568       C  0.65188399  0.06779424  0.90266214     0.07600
C1569       C  0.59916939  0.03973239  0.90025232    -0.02200
C1570       C  0.57663271  0.02472518  0.87399729    -0.02200
C1571       C  0.60695660  0.03979580  0.84917783     0.07700
C1572       C  0.65979031  0.06322947  0.85223726    -0.02400
Br1573     Br  0.70433865  0.08014096  0.82074610    -0.00900
Br1574     Br  0.75141255  0.09308496  0.88236572    -0.01000
Br1575     Br  0.50336454  0.98513521  0.87405840    -0.01000
Br1576     Br  0.55709287  0.02130493  0.93292573    -0.00900
C1577       C  0.39527209  0.08038825  0.64188675    -0.02100
C1578       C  0.44635374  0.09825453  0.64740906     0.07600
C1579       C  0.48018725  0.11634671  0.62517786    -0.02200
C1580       C  0.46367923  0.10474667  0.59789104    -0.02200
C1581       C  0.41253349  0.08611835  0.59166087     0.07700
C1582       C  0.37868801  0.07639563  0.61424814    -0.02400
Br1583     Br  0.30952638  0.05787052  0.60822747    -0.00900
Br1584     Br  0.34922790  0.06516783  0.67226652    -0.01000
Br1585     Br  0.51267908  0.11452354  0.57011492    -0.01000
Br1586     Br  0.54829202  0.16611806  0.63269155    -0.00900
C1587       C  0.48963048  0.09761627  0.86251322    -0.02100
C1588       C  0.44966402  0.08040071  0.84357665     0.07600
C1589       C  0.40429476  0.07674081  0.85222731    -0.02200
C1590       C  0.39729397  0.08539874  0.88002380    -0.02200
C1591       C  0.43572608  0.09815993  0.89960711     0.07700
C1592       C  0.48241683  0.10513341  0.89049288    -0.02400
Br1593     Br  0.53769244  0.12896345  0.91584632    -0.00900
Br1594     Br  0.55625917  0.11859074  0.84887191    -0.01000
Br1595     Br  0.33564727  0.08258360  0.89121886    -0.01000
Br1596     Br  0.35382184  0.06473052  0.82548407    -0.00900
loop_ 
_geom_bond_atom_site_label_1 
_geom_bond_atom_site_label_2 
_geom_bond_distance 
_geom_bond_site_symmetry_2 
_ccdc_geom_bond_type 
O1          Zr13   2.485       .  S
O1            C3   1.293       .  A
O2          Zr39   2.404   1_545  S
O2            C3   1.281       .  A
C3          C790   1.485       .  S
O4          Zr16   2.509       .  S
O4            C6   1.300       .  A
O5          Zr40   2.395   1_565  S
O5            C6   1.279       .  A
C6          C720   1.500       .  S
O7          Zr16   2.480       .  S
O7            C9   1.292       .  A
O8          Zr39   2.357       .  S
O8            C9   1.272       .  A
C9          C730   1.469       .  S
O10         Zr13   2.489       .  S
O10          C12   1.294       .  A
O11         Zr40   2.358       .  S
O11          C12   1.276       .  A
C12         C780   1.485       .  S
Zr13         O14   2.437       .  S
Zr13         O15   2.435       .  S
Zr13         O19   2.294   1_545  S
Zr13         O43   2.296       .  S
Zr13         O20   2.381   1_545  S
Zr13         O45   2.392       .  S
O14          H57   0.990       .  S
O15          H56   0.990       .  S
O15          H60   0.990       .  S
Zr16         O17   2.437       .  S
Zr16         O18   2.434       .  S
Zr16         O19   2.294       .  S
Zr16         O46   2.292       .  S
Zr16         O20   2.359       .  S
Zr16         O44   2.382       .  S
O17          H58   0.990       .  S
O17          H61   0.990       .  S
O18          H51   0.990       .  S
O19         Zr39   2.256       .  S
O20         Zr40   2.365   1_565  S
O20          H47   0.964       .  S
O21         Zr33   2.513       .  S
O21          C23   1.298       .  A
O22         Zr40   2.386       .  S
O22          C23   1.274       .  A
C23         C760   1.488       .  S
O24         Zr36   2.515       .  S
O24          C26   1.295       .  A
O25         Zr39   2.377       .  S
O25          C26   1.259       .  A
C26         C753   1.519       .  S
O27         Zr36   2.544       .  S
O27          C29   1.301       .  A
O28         Zr40   2.360   1_565  S
O28          C29   1.261       .  A
C29         C743   1.520       .  S
O30         Zr33   2.517       .  S
O30          C32   1.301       .  A
O31         Zr39   2.374   1_545  S
O31          C32   1.272       .  A
C32         C773   1.507       .  S
Zr33         O34   2.435       .  S
Zr33         O35   2.434       .  S
Zr33         O42   2.276   1_545  S
Zr33         O43   2.305       .  S
Zr33         O41   2.379       .  S
Zr33         O45   2.380       .  S
O34          H54   0.990       .  S
O34          H59   0.990       .  S
O35          H55   0.990       .  S
Zr36         O37   2.434       .  S
Zr36         O38   2.438       .  S
Zr36         O42   2.286       .  S
Zr36         O46   2.291       .  S
Zr36         O41   2.369   1_565  S
Zr36         O44   2.402       .  S
O37          H53   0.990       .  S
O38          H52   0.989       .  S
O38          H62   0.990       .  S
Zr39         O42   2.272       .  S
Zr39         O44   2.390       .  S
Zr39         O45   2.377   1_565  S
Zr40         O43   2.269       .  S
Zr40         O46   2.260   1_545  S
Zr40         O41   2.391       .  S
O41          H49   0.963       .  S
O44          H48   0.966       .  S
O45          H50   0.965       .  S
O63         Zr75   2.497       .  S
O63          C65   1.295       .  A
O64        Zr101   2.374       .  S
O64          C65   1.276       .  A
C65         C713   1.493       .  S
O66         Zr78   2.514       .  S
O66          C68   1.300       .  A
O67        Zr102   2.354   1_655  S
O67          C68   1.272       .  A
C68         C643   1.483       .  S
O69         Zr78   2.537       .  S
O69          C71   1.304       .  A
O70        Zr101   2.331   1_655  S
O70          C71   1.259       .  A
C71         C650   1.523       .  S
O72         Zr75   2.473       .  S
O72          C74   1.290       .  A
O73        Zr102   2.401       .  S
O73          C74   1.281       .  A
C74         C700   1.484       .  S
Zr75         O76   2.436       .  S
Zr75         O77   2.436       .  S
Zr75         O81   2.273       .  S
Zr75        O105   2.297       .  S
Zr75         O82   2.385       .  S
Zr75        O107   2.392       .  S
O76         H119   0.990       .  S
O77         H118   0.990       .  S
O77         H122   0.990       .  S
Zr78         O79   2.435       .  S
Zr78         O80   2.434       .  S
Zr78         O81   2.272   1_655  S
Zr78        O108   2.296       .  S
Zr78         O82   2.395   1_655  S
Zr78        O106   2.383       .  S
O79         H120   0.990       .  S
O79         H123   0.990       .  S
O80         H113   0.990       .  S
O81        Zr101   2.253       .  S
O82        Zr102   2.382       .  S
O82         H109   0.966       .  S
O83         Zr95   2.521       .  S
O83          C85   1.301       .  A
O84        Zr102   2.391       .  S
O84          C85   1.277       .  A
C85         C683   1.506       .  S
O86         Zr98   2.508       .  S
O86          C88   1.298       .  A
O87        Zr101   2.387   1_655  S
O87          C88   1.276       .  A
C88         C670   1.495       .  S
O89         Zr98   2.518       .  S
O89          C91   1.296       .  A
O90        Zr102   2.391   1_655  S
O90          C91   1.265       .  A
C91         C660   1.527       .  S
O92         Zr95   2.500       .  S
O92          C94   1.296       .  A
O93        Zr101   2.354       .  S
O93          C94   1.270       .  A
C94         C690   1.475       .  S
Zr95         O96   2.438       .  S
Zr95         O97   2.434       .  S
Zr95        O104   2.297       .  S
Zr95        O105   2.299       .  S
Zr95        O103   2.360       .  S
Zr95        O107   2.393       .  S
O96         H116   0.989       .  S
O96         H121   0.990       .  S
O97         H117   0.990       .  S
Zr98         O99   2.434       .  S
Zr98        O100   2.435       .  S
Zr98        O104   2.299   1_655  S
Zr98        O108   2.294       .  S
Zr98        O103   2.386   1_655  S
Zr98        O106   2.389       .  S
O99         H115   0.990       .  S
O100        H114   0.990       .  S
O100        H124   0.990       .  S
Zr101       O104   2.261       .  S
Zr101       O106   2.377   1_455  S
Zr101       O107   2.372       .  S
Zr102       O105   2.264       .  S
Zr102       O108   2.271   1_455  S
Zr102       O103   2.384       .  S
O103        H111   0.963       .  S
O106        H110   0.966       .  S
O107        H112   0.966       .  S
O125       Zr137   2.486       .  S
O125        C127   1.293       .  A
O126       Zr163   2.400       .  S
O126        C127   1.280       .  A
C127        C610   1.483       .  S
O128       Zr140   2.521       .  S
O128        C130   1.303       .  A
O129       Zr164   2.360       .  S
O129        C130   1.267       .  A
C130        C620   1.510       .  S
O131       Zr140   2.527       .  S
O131        C133   1.301       .  A
O132       Zr163   2.363       .  S
O132        C133   1.275       .  A
C133        C633   1.497       .  S
O134       Zr137   2.494       .  S
O134        C136   1.296       .  A
O135       Zr164   2.409       .  S
O135        C136   1.279       .  A
C136        C600   1.493       .  S
Zr137       O138   2.434       .  S
Zr137       O139   2.435       .  S
Zr137       O143   2.304       .  S
Zr137       O167   2.288       .  S
Zr137       O144   2.383       .  S
Zr137       O169   2.384       .  S
O138        H181   0.990       .  S
O139        H180   0.990       .  S
O139        H184   0.990       .  S
Zr140       O141   2.435       .  S
Zr140       O142   2.433       .  S
Zr140       O143   2.298       .  S
Zr140       O170   2.286       .  S
Zr140       O144   2.385       .  S
Zr140       O168   2.383       .  S
O141        H182   0.990       .  S
O141        H185   0.990       .  S
O142        H175   0.990       .  S
O143       Zr163   2.263       .  S
O144       Zr164   2.378       .  S
O144        H171   0.965       .  S
O145       Zr157   2.492       .  S
O145        C147   1.295       .  A
O146       Zr164   2.346       .  S
O146        C147   1.272       .  A
C147        C583   1.478       .  S
O148       Zr160   2.493       .  S
O148        C150   1.296       .  A
O149       Zr163   2.387       .  S
O149        C150   1.277       .  A
C150        C570   1.487       .  S
O151       Zr160   2.502       .  S
O151        C153   1.295       .  A
O152       Zr164   2.382       .  S
O152        C153   1.273       .  A
C153        C563   1.488       .  S
O154       Zr157   2.529       .  S
O154        C156   1.303       .  A
O155       Zr163   2.341       .  S
O155        C156   1.262       .  A
C156        C590   1.510       .  S
Zr157       O158   2.435       .  S
Zr157       O159   2.435       .  S
Zr157       O166   2.280       .  S
Zr157       O167   2.298       .  S
Zr157       O165   2.388       .  S
Zr157       O169   2.348       .  S
O158        H178   0.990       .  S
O158        H183   0.990       .  S
O159        H179   0.990       .  S
Zr160       O161   2.435       .  S
Zr160       O162   2.439       .  S
Zr160       O166   2.291       .  S
Zr160       O170   2.282       .  S
Zr160       O165   2.385       .  S
Zr160       O168   2.381       .  S
O161        H177   0.989       .  S
O162        H176   0.990       .  S
O162        H186   0.990       .  S
Zr163       O166   2.269       .  S
Zr163       O168   2.379       .  S
Zr163       O169   2.372       .  S
Zr164       O167   2.258       .  S
Zr164       O170   2.263       .  S
Zr164       O165   2.386       .  S
O165        H173   0.966       .  S
O168        H172   0.965       .  S
O169        H174   0.962       .  S
O187       Zr199   2.438       .  S
O187        C189   1.290       .  A
O188       Zr225   2.538       .  S
O188        C189   1.303       .  A
C189       C1058   1.531       .  S
O190       Zr202   2.370       .  S
O190        C192   1.273       .  A
O191       Zr226   2.481       .  S
O191        C192   1.296       .  A
C192        C593   1.493       .  S
O193       Zr202   2.369       .  S
O193        C195   1.273       .  A
O194      Zr1023   2.501       .  S
O194        C195   1.301       .  A
C195        C653   1.492       .  S
O196       Zr997   2.442       .  S
O196        C198   1.291       .  A
O197       Zr226   2.544       .  S
O197        C198   1.305       .  A
C198        C502   1.534       .  S
Zr199       O994   2.433       .  S
Zr199       O201   2.436       .  S
Zr199       O998   2.425       .  S
Zr199       O229   2.367       .  S
Zr199       O231   2.349       .  S
Zr199      O1003   2.376   1_554  S
Zr199      O1004   2.372   1_554  S
O200       Zr997   2.430       .  S
O200        H243   0.989       .  S
O201        H242   0.990       .  S
O201        H246   0.990       .  S
Zr202       O203   2.440       .  S
Zr202       O204   2.438       .  S
Zr202       O206   2.342       .  S
Zr202       O205   2.332       .  S
Zr202       O230   2.382       .  S
Zr202       O232   2.373       .  S
O203        H244   0.990       .  S
O203        H247   0.990       .  S
O204        H237   0.990       .  S
O205       Zr997   2.372       .  S
O205      Zr1023   2.389       .  S
O206       Zr226   2.400       .  S
O206       Zr997   2.378       .  S
O206        H233   0.966       .  S
O207       Zr219   2.372       .  S
O207        C209   1.260       .  A
O208      Zr1024   2.508       .  S
O208        C209   1.299       .  A
C209        C580   1.490       .  S
O210       Zr222   2.650       .  S
O210       C1010   1.329       .  A
O211       Zr225   2.413       .  S
O211        C212   1.290       .  A
C212       O1008   1.327       .  A
C212       C1137   1.563   1_655  S
O213       Zr222   2.664       .  S
O213        C215   1.334       .  A
O214       Zr226   2.421       .  S
O214        C215   1.292       .  A
C215        C395   1.571       .  S
O216       Zr219   2.394       .  S
O216        C218   1.269       .  A
O217       Zr225   2.478       .  S
O217        C218   1.288       .  A
C218        C640   1.506       .  S
Zr219       O220   2.432       .  S
Zr219       O221   2.438       .  S
Zr219       O227   2.393       .  S
Zr219       O228   2.374       .  S
Zr219       O231   2.372       .  S
Zr219       O229   2.381       .  S
O220        H240   0.988       .  S
O220        H245   0.989       .  S
O221        H241   0.990       .  S
Zr222       O224   2.433       .  S
Zr222      O1021   2.434       .  S
Zr222       O232   2.408       .  S
Zr222       O230   2.398       .  S
Zr222      O1026   2.404       .  S
Zr222      O1025   2.369       .  S
O223      Zr1020   2.434       .  S
O223        H239   0.990       .  S
O224        H238   0.990       .  S
O224        H248   0.990       .  S
Zr225       O992   2.480   1_554  S
Zr225       O228   2.437       .  S
Zr225       O231   2.411       .  S
Zr225      O1003   2.388   1_554  S
Zr225      O1028   2.421   1_554  S
Zr226      O1006   2.506       .  S
Zr226       O232   2.418       .  S
Zr226      O1025   2.433       .  S
Zr226      O1027   2.398       .  S
O227      Zr1020   2.373       .  S
O227      Zr1024   2.426       .  S
O227        H235   0.964       .  S
O228      Zr1020   2.401       .  S
O229      Zr1024   2.394       .  S
O230      Zr1023   2.421       .  S
O230        H234   0.964       .  S
O231        H236   0.958       .  S
O249       Zr261   2.427       .  S
O249        C251   1.287       .  A
O250       Zr287   2.567       .  S
O250        C251   1.310       .  A
C251       C1303   1.544   1_556  S
O252       Zr264   2.389       .  S
O252        C254   1.267       .  A
O253       Zr288   2.484       .  S
O253        C254   1.290       .  A
C254        C673   1.508       .  S
O255       Zr264   2.377       .  S
O255        C257   1.274       .  A
O256      Zr1085   2.479       .  S
O256        C257   1.299       .  A
C257        C770   1.481       .  S
O258      Zr1059   2.400       .  S
O258        C260   1.281       .  A
O259       Zr288   2.564       .  S
O259        C260   1.310       .  A
C260        C987   1.531       .  S
Zr261      O1056   2.406   1_556  S
Zr261       O263   2.439   1_556  S
Zr261      O1060   2.434       .  S
Zr261       O291   2.377   1_556  S
Zr261       O293   2.348   1_556  S
Zr261      O1065   2.362       .  S
Zr261      O1066   2.353       .  S
O262      Zr1059   2.434       .  S
O262        H305   0.989       .  S
O263        H304   0.990       .  S
O263        H308   0.990       .  S
Zr264       O265   2.437       .  S
Zr264       O266   2.431       .  S
Zr264       O268   2.369       .  S
Zr264       O267   2.366       .  S
Zr264       O292   2.377       .  S
Zr264       O294   2.365       .  S
O265        H306   0.990       .  S
O265        H309   0.990       .  S
O266        H299   0.990       .  S
O267      Zr1059   2.361       .  S
O267      Zr1085   2.386       .  S
O268       Zr288   2.406       .  S
O268      Zr1059   2.356       .  S
O268        H295   0.964       .  S
O269       Zr281   2.382       .  S
O269        C271   1.275       .  A
O270      Zr1086   2.485       .  S
O270        C271   1.298       .  A
C271        C663   1.502       .  S
O272       Zr284   2.621       .  S
O272       C1072   1.323       .  A
O273       Zr287   2.438       .  S
O273        C274   1.296       .  A
C274       O1070   1.323       .  A
C274        C404   1.566   1_545  S
O275       Zr284   2.614       .  S
O275        C277   1.321       .  A
O276       Zr288   2.428       .  S
O276        C277   1.294       .  A
C277       C1258   1.556   1_655  S
O278       Zr281   2.385       .  S
O278        C280   1.264       .  A
O279       Zr287   2.513   1_554  S
O279        C280   1.293       .  A
C280        C763   1.506       .  S
Zr281       O282   2.441       .  S
Zr281       O283   2.430       .  S
Zr281       O289   2.365       .  S
Zr281       O290   2.379       .  S
Zr281       O293   2.372       .  S
Zr281       O291   2.351       .  S
O282        H302   0.989       .  S
O282        H307   0.989       .  S
O283        H303   0.990       .  S
Zr284       O286   2.435       .  S
Zr284      O1083   2.435       .  S
Zr284       O294   2.393       .  S
Zr284       O292   2.409       .  S
Zr284      O1088   2.394       .  S
Zr284      O1087   2.409       .  S
O285      Zr1082   2.434   1_554  S
O285        H301   0.990       .  S
O286        H300   0.990       .  S
O286        H310   0.990       .  S
Zr287      O1054   2.501       .  S
Zr287       O290   2.434   1_556  S
Zr287       O293   2.393   1_556  S
Zr287      O1065   2.394       .  S
Zr287      O1090   2.433       .  S
Zr288      O1068   2.483       .  S
Zr288       O294   2.427       .  S
Zr288      O1087   2.426       .  S
Zr288      O1089   2.375       .  S
O289      Zr1082   2.414   1_554  S
O289      Zr1086   2.420       .  S
O289        H297   0.965       .  S
O290      Zr1082   2.397   1_554  S
O291      Zr1086   2.375       .  S
O292      Zr1085   2.432       .  S
O292        H296   0.965       .  S
O293        H298   0.957       .  S
O311       Zr323   2.419       .  S
O311        C313   1.286       .  A
O312       Zr349   2.589       .  S
O312        C313   1.313       .  A
C313        C381   1.556       .  S
O314       Zr326   2.401       .  S
O314        C316   1.269       .  A
O315       Zr350   2.475       .  S
O315        C316   1.287       .  A
C316        C710   1.495       .  S
O317       Zr326   2.361       .  S
O317        C319   1.256       .  A
O318      Zr1147   2.503       .  S
O318        C319   1.295       .  A
C319        C733   1.489       .  S
O320      Zr1121   2.411       .  S
O320        C322   1.283       .  A
O321       Zr350   2.555       .  S
O321        C322   1.307       .  A
C322       C1235   1.532       .  S
Zr323      O1118   2.411       .  S
Zr323       O325   2.438   1_556  S
Zr323      O1122   2.434       .  S
Zr323       O353   2.353   1_556  S
Zr323       O355   2.365   1_556  S
Zr323      O1127   2.363       .  S
Zr323      O1128   2.363       .  S
O324      Zr1121   2.437       .  S
O324        H367   0.990       .  S
O325        H366   0.990       .  S
O325        H370   0.990       .  S
Zr326       O327   2.440       .  S
Zr326       O328   2.435       .  S
Zr326       O330   2.373       .  S
Zr326       O329   2.386       .  S
Zr326       O354   2.403       .  S
Zr326       O356   2.365       .  S
O327        H368   0.990       .  S
O327        H371   0.988       .  S
O328        H361   0.990       .  S
O329      Zr1121   2.363       .  S
O329      Zr1147   2.391       .  S
O330       Zr350   2.405       .  S
O330      Zr1121   2.357       .  S
O330        H357   0.959       .  S
O331       Zr343   2.388       .  S
O331        C333   1.264       .  A
O332      Zr1148   2.464   1_554  S
O332        C333   1.282       .  A
C333        C703   1.499       .  S
O334       Zr346   2.613       .  S
O334       C1134   1.323       .  A
O335       Zr349   2.431       .  S
O335        C336   1.295       .  A
C336       O1132   1.324       .  A
C336        C528   1.555   1_565  S
O337       Zr346   2.635       .  S
O337        C339   1.326       .  A
O338       Zr350   2.450       .  S
O338        C339   1.298       .  A
C339       C1010   1.575   1_455  S
O340       Zr343   2.389       .  S
O340        C342   1.264       .  A
O341       Zr349   2.475   1_554  S
O341        C342   1.281       .  A
C342        C723   1.509       .  S
Zr343       O344   2.438       .  S
Zr343       O345   2.434       .  S
Zr343       O351   2.388       .  S
Zr343       O352   2.363       .  S
Zr343       O355   2.394       .  S
Zr343       O353   2.374       .  S
O344        H364   0.988       .  S
O344        H369   0.989       .  S
O345        H365   0.990       .  S
Zr346       O348   2.437       .  S
Zr346      O1145   2.433       .  S
Zr346       O356   2.385       .  S
Zr346       O354   2.395       .  S
Zr346      O1150   2.393       .  S
Zr346      O1149   2.394       .  S
O347      Zr1144   2.435   1_554  S
O347        H363   0.990       .  S
O348        H362   0.990       .  S
O348        H372   0.990       .  S
Zr349      O1116   2.517       .  S
Zr349       O352   2.441   1_556  S
Zr349       O355   2.406   1_556  S
Zr349      O1127   2.384       .  S
Zr349      O1152   2.446       .  S
Zr350      O1130   2.489       .  S
Zr350       O356   2.427       .  S
Zr350      O1149   2.426       .  S
Zr350      O1151   2.400       .  S
O351      Zr1144   2.427   1_554  S
O351      Zr1148   2.454   1_554  S
O351        H359   0.965       .  S
O352      Zr1144   2.389   1_554  S
O353      Zr1148   2.389   1_554  S
O354      Zr1147   2.445       .  S
O354        H358   0.966       .  S
O355        H360   0.965       .  S
O373       Zr385   2.387       .  S
O373        C375   1.277       .  A
O374      Zr1209   2.470       .  S
O374        C375   1.296       .  A
C375        C750   1.486       .  S
O376      Zr1186   2.433       .  S
O376        C378   1.290       .  A
O377       Zr412   2.540       .  S
O377        C378   1.304       .  A
C378        C446   1.534       .  S
O379       Zr388   2.429       .  S
O379        C381   1.288       .  A
O380       Zr411   2.587       .  S
O380        C381   1.314       .  A
O382       Zr385   2.391       .  S
O382        C384   1.267       .  A
O383       Zr412   2.502       .  S
O383        C384   1.292       .  A
C384        C613   1.500       .  S
Zr385       O386   2.432       .  S
Zr385       O387   2.432       .  S
Zr385       O391   2.380       .  S
Zr385       O392   2.366       .  S
Zr385       O415   2.368       .  S
Zr385       O417   2.351       .  S
O386        H429   0.990       .  S
O387        H428   0.989       .  S
O387        H432   0.990       .  S
Zr388      O1174   2.437       .  S
Zr388       O390   2.430   1_556  S
Zr388      O1187   2.437       .  S
Zr388       O416   2.365   1_556  S
Zr388       O418   2.367   1_556  S
Zr388      O1190   2.339       .  S
Zr388      O1189   2.364       .  S
O389      Zr1186   2.435       .  S
O389        H430   0.990       .  S
O389        H433   0.990       .  S
O390        H423   0.990   1_554  S
O391      Zr1186   2.372       .  S
O391      Zr1209   2.380       .  S
O392       Zr412   2.392       .  S
O392      Zr1186   2.338       .  S
O392        H419   0.951       .  S
O393       Zr405   2.618       .  S
O393        C395   1.323       .  A
O394       Zr412   2.467       .  S
O394        C395   1.302       .  A
O396       Zr408   2.396       .  S
O396        C398   1.271       .  A
O397       Zr411   2.504   1_554  S
O397        C398   1.300       .  A
C398        C740   1.513       .  S
O399       Zr408   2.392       .  S
O399        C401   1.275       .  A
O400      Zr1210   2.487   1_554  S
O400        C401   1.297       .  A
C401        C603   1.485       .  S
O402       Zr405   2.640       .  S
O402       C1202   1.328       .  A
O403       Zr411   2.425       .  S
O403        C404   1.295       .  A
C404       O1200   1.329       .  A
Zr405       O407   2.433       .  S
Zr405      O1204   2.435       .  S
Zr405       O417   2.410       .  S
Zr405       O415   2.396       .  S
Zr405      O1211   2.427       .  S
Zr405      O1212   2.376       .  S
O406      Zr1203   2.435   1_554  S
O406        H426   0.990       .  S
O406        H431   0.990       .  S
O407        H427   0.990       .  S
Zr408       O409   2.432       .  S
Zr408       O410   2.441       .  S
Zr408       O414   2.354       .  S
Zr408       O413   2.378       .  S
Zr408       O418   2.356       .  S
Zr408       O416   2.376       .  S
O409        H425   0.990       .  S
O410        H424   0.990       .  S
O410        H434   0.990       .  S
Zr411      O1172   2.510       .  S
Zr411       O414   2.413   1_556  S
Zr411       O416   2.398   1_556  S
Zr411      O1189   2.384       .  S
Zr411      O1215   2.443       .  S
Zr412      O1198   2.486       .  S
Zr412       O415   2.434       .  S
Zr412      O1211   2.426       .  S
Zr412      O1216   2.389       .  S
O413      Zr1203   2.432   1_554  S
O413      Zr1210   2.429   1_554  S
O413        H421   0.966       .  S
O414      Zr1203   2.379   1_554  S
O416        H420   0.965       .  S
O417      Zr1209   2.432       .  S
O417        H422   0.966       .  S
O418      Zr1210   2.393   1_554  S
O435       Zr447   2.424       .  S
O435        C437   1.288       .  A
O436       Zr473   2.551       .  S
O436        C437   1.306       .  A
C437       C1120   1.534       .  S
O438       Zr450   2.386       .  S
O438        C440   1.265       .  A
O439       Zr474   2.494       .  S
O439        C440   1.291       .  A
C440        C630   1.506       .  S
O441       Zr450   2.365       .  S
O441        C443   1.257       .  A
O442      Zr1271   2.521       .  S
O442        C443   1.297       .  A
C443        C693   1.496       .  S
O444      Zr1245   2.400       .  S
O444        C446   1.282       .  A
O445       Zr474   2.564       .  S
O445        C446   1.309       .  A
Zr447      O1242   2.398       .  S
Zr447       O449   2.438   1_556  S
Zr447      O1246   2.435       .  S
Zr447       O477   2.369   1_556  S
Zr447       O479   2.356   1_556  S
Zr447      O1251   2.364       .  S
Zr447      O1252   2.376       .  S
O448      Zr1245   2.433       .  S
O448        H491   0.990       .  S
O449        H490   0.990       .  S
O449        H494   0.990       .  S
Zr450       O451   2.440       .  S
Zr450       O452   2.435       .  S
Zr450       O454   2.380       .  S
Zr450       O453   2.382       .  S
Zr450       O478   2.392       .  S
Zr450       O480   2.366       .  S
O451        H492   0.989       .  S
O451        H495   0.989       .  S
O452        H485   0.990       .  S
O453      Zr1245   2.364       .  S
O453      Zr1271   2.386       .  S
O454       Zr474   2.398       .  S
O454      Zr1245   2.364       .  S
O454        H481   0.961       .  S
O455       Zr467   2.399       .  S
O455        C457   1.278       .  A
O456      Zr1272   2.487   1_554  S
O456        C457   1.299       .  A
C457        C623   1.500       .  S
O458       Zr470   2.626       .  S
O458       C1258   1.326       .  A
O459       Zr473   2.429       .  S
O459        C460   1.295       .  A
C460       O1256   1.329       .  A
C460       C1075   1.566   1_455  S
O461       Zr470   2.641       .  S
O461        C463   1.328       .  A
O462       Zr474   2.410       .  S
O462        C463   1.289       .  A
C463        C519   1.563       .  S
O464       Zr467   2.407       .  S
O464        C466   1.272       .  A
O465       Zr473   2.457   1_554  S
O465        C466   1.286       .  A
C466        C680   1.497       .  S
Zr467       O468   2.439       .  S
Zr467       O469   2.438       .  S
Zr467       O475   2.385       .  S
Zr467       O476   2.368       .  S
Zr467       O479   2.363       .  S
Zr467       O477   2.370       .  S
O468        H488   0.988       .  S
O468        H493   0.990       .  S
O469        H489   0.990       .  S
Zr470       O472   2.437       .  S
Zr470      O1269   2.433       .  S
Zr470       O480   2.382       .  S
Zr470       O478   2.397       .  S
Zr470      O1274   2.394       .  S
Zr470      O1273   2.404       .  S
O471      Zr1268   2.433   1_554  S
O471        H487   0.990       .  S
O472        H486   0.990       .  S
O472        H496   0.990       .  S
Zr473      O1240   2.497       .  S
Zr473       O476   2.429   1_556  S
Zr473       O479   2.401   1_556  S
Zr473      O1251   2.386       .  S
Zr473      O1276   2.435       .  S
Zr474      O1254   2.473       .  S
Zr474       O480   2.421       .  S
Zr474      O1273   2.437       .  S
Zr474      O1275   2.392       .  S
O475      Zr1268   2.399   1_554  S
O475      Zr1272   2.433   1_554  S
O475        H483   0.964       .  S
O476      Zr1268   2.400   1_554  S
O477      Zr1272   2.391   1_554  S
O478      Zr1271   2.439       .  S
O478        H482   0.965       .  S
O479        H484   0.965       .  S
O497       Zr509   2.362       .  S
O497        C499   1.269       .  A
O498       Zr535   2.512       .  S
O498        C499   1.303       .  A
C499        C793   1.483       .  S
O500       Zr512   2.401       .  S
O500        C502   1.282       .  A
O501       Zr536   2.568       .  S
O501        C502   1.311       .  A
O503      Zr1310   2.422       .  S
O503       C1303   1.286       .  A
O504      Zr1333   2.567       .  S
O504       C1303   1.309   1_556  A
C505       O1301   1.288       .  A
C505       O1302   1.310       .  A
C505       C1049   1.549       .  S
O506       Zr509   2.387       .  S
O506        C508   1.265       .  A
O507       Zr536   2.466       .  S
O507        C508   1.281       .  A
C508        C573   1.497       .  S
Zr509       O510   2.437       .  S
Zr509       O511   2.441       .  S
Zr509       O515   2.372       .  S
Zr509       O516   2.369       .  S
Zr509       O539   2.355       .  S
Zr509       O541   2.376       .  S
O510        H553   0.989       .  S
O511        H552   0.990       .  S
O511        H556   0.990       .  S
Zr512      O1301   2.429       .  S
Zr512       O513   2.437       .  S
Zr512      O1312   2.434       .  S
Zr512       O516   2.363       .  S
Zr512       O515   2.362       .  S
Zr512      O1338   2.346       .  S
Zr512      O1340   2.379       .  S
O513        H554   0.990       .  S
O513        H557   0.990       .  S
O514      Zr1310   2.436       .  S
O514        H547   0.990       .  S
O515       Zr535   2.379       .  S
O516       Zr536   2.410       .  S
O516        H543   0.963       .  S
O517       Zr529   2.612       .  S
O517        C519   1.322       .  A
O518       Zr536   2.455       .  S
O518        C519   1.300       .  A
O520       Zr532   2.404       .  S
O520        C522   1.269       .  A
O521      Zr1333   2.460   1_554  S
O521        C522   1.286       .  A
C522        C783   1.493       .  S
O523       Zr532   2.397       .  S
O523        C525   1.269       .  A
O524      Zr1334   2.502       .  S
O524        C525   1.297       .  A
C525        C560   1.491       .  S
O526       Zr529   2.609       .  S
O526       C1326   1.320       .  A
O527      Zr1333   2.427       .  S
O527        C528   1.293       .  A
C528       O1324   1.319       .  A
Zr529       O531   2.436       .  S
Zr529      O1328   2.436       .  S
Zr529       O541   2.417       .  S
Zr529       O539   2.383       .  S
Zr529      O1335   2.409       .  S
Zr529      O1336   2.383       .  S
O530      Zr1327   2.436   1_554  S
O530        H550   0.990       .  S
O530        H555   0.990       .  S
O531        H551   0.990       .  S
Zr532       O533   2.439       .  S
Zr532       O534   2.438       .  S
Zr532       O538   2.372       .  S
Zr532       O537   2.391       .  S
Zr532       O542   2.369       .  S
Zr532       O540   2.393       .  S
O533        H549   0.990       .  S
O534        H548   0.989       .  S
O534        H558   0.984       .  S
Zr535      O1302   2.572       .  S
Zr535      O1319   2.488       .  S
Zr535      O1325   2.421       .  S
Zr535       O541   2.432       .  S
Zr535      O1336   2.438       .  S
Zr535      O1338   2.406       .  S
Zr536      O1322   2.484       .  S
Zr536       O539   2.432       .  S
Zr536      O1335   2.430       .  S
Zr536      O1340   2.388       .  S
O537      Zr1327   2.410   1_554  S
O537      Zr1334   2.438       .  S
O537        H545   0.965       .  S
O538      Zr1327   2.382   1_554  S
O538      Zr1333   2.432   1_554  S
O540      Zr1310   2.364       .  S
O540      Zr1333   2.415   1_554  S
O540        H544   0.964       .  S
O541        H546   0.966       .  S
O542      Zr1310   2.367       .  S
O542      Zr1334   2.385       .  S
C559        C560   1.419       .  A
C559        C564   1.416       .  A
C559       Br566   1.927       .  S
C560        C561   1.414       .  A
C561        C562   1.410       .  A
C561       Br568   1.927       .  S
C562        C563   1.404       .  A
C562       Br567   1.921       .  S
C563        C564   1.407       .  A
C564       Br565   1.926       .  S
C569        C570   1.404       .  A
C569        C574   1.412       .  A
C569       Br576   1.927       .  S
C570        C571   1.410       .  A
C571        C572   1.413       .  A
C571       Br578   1.926       .  S
C572        C573   1.415       .  A
C572       Br577   1.928       .  S
C573        C574   1.422       .  A
C574       Br575   1.931       .  S
C579        C580   1.411       .  A
C579        C584   1.402       .  A
C579       Br586   1.930       .  S
C580        C581   1.432       .  A
C581        C582   1.416       .  A
C581       Br588   1.933       .  S
C582        C583   1.399       .  A
C582       Br587   1.929       .  S
C583        C584   1.404       .  A
C584       Br585   1.913       .  S
C589        C590   1.413       .  A
C589        C594   1.407       .  A
C589       Br596   1.932       .  S
C590        C591   1.446       .  A
C591        C592   1.414       .  A
C591       Br598   1.945       .  S
C592        C593   1.399       .  A
C592       Br597   1.936       .  S
C593        C594   1.418       .  A
C594       Br595   1.937       .  S
C599        C600   1.405       .  A
C599        C604   1.412       .  A
C599       Br606   1.919       .  S
C600        C601   1.414       .  A
C601        C602   1.418       .  A
C601       Br608   1.926       .  S
C602        C603   1.413       .  A
C602       Br607   1.929       .  S
C603        C604   1.412       .  A
C604       Br605   1.928       .  S
C609        C610   1.393       .  A
C609        C614   1.406       .  A
C609       Br616   1.922       .  S
C610        C611   1.410       .  A
C611        C612   1.417       .  A
C611       Br618   1.925       .  S
C612        C613   1.421       .  A
C612       Br617   1.930       .  S
C613        C614   1.420       .  A
C614       Br615   1.912       .  S
C619        C620   1.411       .  A
C619        C624   1.411       .  A
C619       Br626   1.933       .  S
C620        C621   1.441       .  A
C621        C622   1.414       .  A
C621       Br628   1.941       .  S
C622        C623   1.404       .  A
C622       Br627   1.938       .  S
C623        C624   1.421       .  A
C624       Br625   1.934       .  S
C629        C630   1.433       .  A
C629        C634   1.426       .  A
C629       Br636   1.931       .  S
C630        C631   1.409       .  A
C631        C632   1.402       .  A
C631       Br638   1.918       .  S
C632        C633   1.400       .  A
C632       Br637   1.907       .  S
C633        C634   1.407       .  A
C634       Br635   1.923       .  S
C639        C640   1.428       .  A
C639        C644   1.417       .  A
C639       Br646   1.935       .  S
C640        C641   1.421       .  A
C641        C642   1.411       .  A
C641       Br648   1.933       .  S
C642        C643   1.408       .  A
C642       Br647   1.929       .  S
C643        C644   1.401       .  A
C644       Br645   1.928       .  S
C649        C650   1.453       .  A
C649        C654   1.416       .  A
C649       Br656   1.948   1_655  S
C650        C651   1.416       .  A
C651        C652   1.411       .  A
C651       Br658   1.933       .  S
C652        C653   1.419       .  A
C652       Br657   1.939       .  S
C653        C654   1.396       .  A
C654       Br655   1.937       .  S
C659        C660   1.443       .  A
C659        C664   1.417       .  A
C659       Br666   1.936       .  S
C660        C661   1.421       .  A
C661        C662   1.414       .  A
C661       Br668   1.933       .  S
C662        C663   1.418       .  A
C662       Br667   1.937       .  S
C663        C664   1.403       .  A
C664       Br665   1.938       .  S
C669        C670   1.411       .  A
C669        C674   1.414       .  A
C669       Br676   1.928       .  S
C670        C671   1.403       .  A
C671        C672   1.417       .  A
C671       Br678   1.925       .  S
C672        C673   1.429       .  A
C672       Br677   1.935       .  S
C673        C674   1.417       .  A
C674       Br675   1.930       .  S
C679        C680   1.422       .  A
C679        C684   1.420       .  A
C679       Br686   1.932       .  S
C680        C681   1.409       .  A
C681        C682   1.407       .  A
C681       Br688   1.939       .  S
C682        C683   1.415       .  A
C682       Br687   1.900       .  S
C683        C684   1.411       .  A
C684       Br685   1.924       .  S
C689        C690   1.402       .  A
C689        C694   1.415       .  A
C689       Br696   1.919       .  S
C690        C691   1.396       .  A
C691        C692   1.410       .  A
C691       Br698   1.924       .  S
C692        C693   1.426       .  A
C692       Br697   1.924       .  S
C693        C694   1.417       .  A
C694       Br695   1.925       .  S
C699        C700   1.401       .  A
C699        C704   1.416       .  A
C699       Br706   1.930       .  S
C700        C701   1.400       .  A
C701        C702   1.410       .  A
C701       Br708   1.912       .  S
C702        C703   1.415       .  A
C702       Br707   1.927       .  S
C703        C704   1.430       .  A
C704       Br705   1.935       .  S
C709        C710   1.406       .  A
C709        C714   1.400       .  A
C709       Br716   1.924       .  S
C710        C711   1.424       .  A
C711        C712   1.423       .  A
C711       Br718   1.926       .  S
C712        C713   1.410       .  A
C712       Br717   1.924       .  S
C713        C714   1.403       .  A
C714       Br715   1.908       .  S
C719        C720   1.413       .  A
C719        C724   1.415       .  A
C719       Br726   1.924       .  S
C720        C721   1.406       .  A
C721        C722   1.417       .  A
C721       Br728   1.928       .  S
C722        C723   1.428       .  A
C722       Br727   1.933       .  S
C723        C724   1.416       .  A
C724       Br725   1.930       .  S
C729        C730   1.396       .  A
C729        C734   1.408       .  A
C729       Br736   1.928       .  S
C730        C731   1.407       .  A
C731        C732   1.410       .  A
C731       Br738   1.929       .  S
C732        C733   1.415       .  A
C732       Br737   1.932       .  S
C733        C734   1.430       .  A
C734       Br735   1.939       .  S
C739        C740   1.430       .  A
C739        C744   1.417       .  A
C739       Br746   1.938       .  S
C740        C741   1.406       .  A
C741        C742   1.413       .  A
C741       Br748   1.939       .  S
C742        C743   1.440       .  A
C742       Br747   1.939   1_565  S
C743        C744   1.412       .  A
C744       Br745   1.932       .  S
C749        C750   1.414       .  A
C749        C754   1.413       .  A
C749       Br756   1.928       .  S
C750        C751   1.397       .  A
C751        C752   1.410       .  A
C751       Br758   1.941       .  S
C752        C753   1.443       .  A
C752       Br757   1.934       .  S
C753        C754   1.419       .  A
C754       Br755   1.933       .  S
C759        C760   1.397       .  A
C759        C764   1.413       .  A
C759       Br766   1.923       .  S
C760        C761   1.410       .  A
C761        C762   1.420       .  A
C761       Br768   1.924       .  S
C762        C763   1.422       .  A
C762       Br767   1.928       .  S
C763        C764   1.417       .  A
C764       Br765   1.913       .  S
C769        C770   1.420       .  A
C769        C774   1.416       .  A
C769       Br776   1.932       .  S
C770        C771   1.400       .  A
C771        C772   1.405       .  A
C771       Br778   1.942       .  S
C772        C773   1.426       .  A
C772       Br777   1.910       .  S
C773        C774   1.413       .  A
C774       Br775   1.927       .  S
C779        C780   1.408       .  A
C779        C784   1.419       .  A
C779       Br786   1.927       .  S
C780        C781   1.400       .  A
C781        C782   1.397       .  A
C781       Br788   1.904       .  S
C782        C783   1.409       .  A
C782       Br787   1.930       .  S
C783        C784   1.428       .  A
C784       Br785   1.930       .  S
C789        C790   1.408       .  A
C789        C794   1.415       .  A
C789       Br796   1.930       .  S
C790        C791   1.404       .  A
C791        C792   1.413       .  A
C791       Br798   1.915       .  S
C792        C793   1.410       .  A
C792       Br797   1.925       .  S
C793        C794   1.420       .  A
C794       Br795   1.932       .  S
O799       Zr811   2.502       .  S
O799        C801   1.298       .  A
O800       Zr837   2.396   1_545  S
O800        C801   1.279       .  A
C801       C1588   1.493       .  S
O802       Zr814   2.516       .  S
O802        C804   1.300       .  A
O803       Zr838   2.388       .  S
O803        C804   1.277       .  A
C804       C1518   1.496       .  S
O805       Zr814   2.499       .  S
O805        C807   1.296       .  A
O806       Zr837   2.360       .  S
O806        C807   1.273       .  A
C807       C1528   1.478       .  S
O808       Zr811   2.514       .  S
O808        C810   1.299       .  A
O809       Zr838   2.388   1_545  S
O809        C810   1.279       .  A
C810       C1578   1.499       .  S
Zr811       O812   2.433       .  S
Zr811       O813   2.434       .  S
Zr811       O817   2.299   1_545  S
Zr811       O841   2.292       .  S
Zr811       O818   2.381   1_545  S
Zr811       O843   2.388       .  S
O812        H855   0.990       .  S
O813        H854   0.990       .  S
O813        H858   0.990       .  S
Zr814       O815   2.438       .  S
Zr814       O816   2.435       .  S
Zr814       O817   2.298       .  S
Zr814       O844   2.284       .  S
Zr814       O818   2.371       .  S
Zr814       O842   2.384       .  S
O815        H856   0.989       .  S
O815        H859   0.990       .  S
O816        H849   0.990       .  S
O817       Zr837   2.268       .  S
O818       Zr838   2.370       .  S
O818        H845   0.965       .  S
O819       Zr831   2.504       .  S
O819        C821   1.297       .  A
O820       Zr838   2.387   1_545  S
O820        C821   1.275       .  A
C821       C1558   1.481       .  S
O822       Zr834   2.512       .  S
O822        C824   1.298       .  A
O823       Zr837   2.376       .  S
O823        C824   1.272       .  A
C824       C1551   1.500       .  S
O825       Zr834   2.512       .  S
O825        C827   1.294       .  A
O826       Zr838   2.366       .  S
O826        C827   1.260       .  A
C827       C1541   1.507       .  S
O828       Zr831   2.516       .  S
O828        C830   1.301       .  A
O829       Zr837   2.367       .  S
O829        C830   1.267   1_565  A
C830       C1571   1.521       .  S
Zr831       O832   2.436       .  S
Zr831       O833   2.434       .  S
Zr831       O840   2.279   1_545  S
Zr831       O841   2.309       .  S
Zr831       O839   2.373   1_545  S
Zr831       O843   2.381       .  S
O832        H852   0.990       .  S
O832        H857   0.990       .  S
O833        H853   0.990       .  S
Zr834       O835   2.436       .  S
Zr834       O836   2.437       .  S
Zr834       O840   2.279       .  S
Zr834       O844   2.291       .  S
Zr834       O839   2.383       .  S
Zr834       O842   2.390       .  S
O835        H851   0.990       .  S
O836        H850   0.990       .  S
O836        H860   0.990       .  S
Zr837       O840   2.264       .  S
Zr837       O842   2.379       .  S
Zr837       O843   2.378   1_565  S
Zr838       O841   2.269   1_565  S
Zr838       O844   2.263       .  S
Zr838       O839   2.395       .  S
O839        H847   0.964       .  S
O842        H846   0.966       .  S
O843        H848   0.965       .  S
O861       Zr873   2.514       .  S
O861        C863   1.298       .  A
O862       Zr899   2.365       .  S
O862        C863   1.273       .  A
C863       C1511   1.497       .  S
O864       Zr876   2.505       .  S
O864        C866   1.298       .  A
O865       Zr900   2.370   1_655  S
O865        C866   1.275       .  A
C866       C1441   1.487       .  S
O867       Zr876   2.529       .  S
O867        C869   1.302       .  A
O868       Zr899   2.344   1_655  S
O868        C869   1.262       .  A
C869       C1448   1.520       .  S
O870       Zr873   2.499       .  S
O870        C872   1.296       .  A
O871       Zr900   2.367       .  S
O871        C872   1.275       .  A
C872       C1498   1.478       .  S
Zr873       O874   2.436       .  S
Zr873       O875   2.438       .  S
Zr873       O879   2.277       .  S
Zr873       O903   2.296       .  S
Zr873       O880   2.389       .  S
Zr873       O905   2.389       .  S
O874        H917   0.990       .  S
O875        H916   0.990       .  S
O875        H920   0.990       .  S
Zr876       O877   2.436       .  S
Zr876       O878   2.435       .  S
Zr876       O879   2.274   1_655  S
Zr876       O906   2.292       .  S
Zr876       O880   2.397   1_655  S
Zr876       O904   2.379       .  S
O877        H918   0.990       .  S
O877        H921   0.989       .  S
O878        H911   0.990       .  S
O879       Zr899   2.257       .  S
O880       Zr900   2.392       .  S
O880        H907   0.966       .  S
O881       Zr893   2.509       .  S
O881        C883   1.298       .  A
O882       Zr900   2.408       .  S
O882        C883   1.280       .  A
C883       C1481   1.499       .  S
O884       Zr896   2.489       .  S
O884        C886   1.295       .  A
O885       Zr899   2.391   1_655  S
O885        C886   1.278       .  A
C886       C1468   1.486       .  S
O887       Zr896   2.510       .  S
O887        C889   1.294       .  A
O888       Zr900   2.376   1_655  S
O888        C889   1.263       .  A
C889       C1458   1.519       .  S
O890       Zr893   2.477       .  S
O890        C892   1.290       .  A
O891       Zr899   2.350       .  S
O891        C892   1.270       .  A
C892       C1488   1.462       .  S
Zr893       O894   2.440       .  S
Zr893       O895   2.434       .  S
Zr893       O902   2.302       .  S
Zr893       O903   2.292       .  S
Zr893       O901   2.364       .  S
Zr893       O905   2.383       .  S
O894        H914   0.991       .  S
O894        H919   0.990       .  S
O895        H915   0.990       .  S
Zr896       O897   2.434       .  S
Zr896       O898   2.435       .  S
Zr896       O902   2.302   1_655  S
Zr896       O906   2.286       .  S
Zr896       O901   2.377   1_655  S
Zr896       O904   2.393       .  S
O897        H913   0.990       .  S
O898        H912   0.990       .  S
O898        H922   0.990       .  S
Zr899       O902   2.266       .  S
Zr899       O904   2.377   1_455  S
Zr899       O905   2.373       .  S
Zr900       O903   2.266       .  S
Zr900       O906   2.265   1_455  S
Zr900       O901   2.385       .  S
O901        H909   0.962       .  S
O904        H908   0.965       .  S
O905        H910   0.966       .  S
O923       Zr935   2.491       .  S
O923        C925   1.293       .  A
O924       Zr961   2.400       .  S
O924        C925   1.280       .  A
C925       C1408   1.486       .  S
O926       Zr938   2.533       .  S
O926        C928   1.305       .  A
O927       Zr962   2.349       .  S
O927        C928   1.264       .  A
C928       C1418   1.516       .  S
O929       Zr938   2.549       .  S
O929        C931   1.305       .  A
O930       Zr961   2.348       .  S
O930        C931   1.272       .  A
C931       C1431   1.511       .  S
O932       Zr935   2.497       .  S
O932        C934   1.297       .  A
O933       Zr962   2.397       .  S
O933        C934   1.277       .  A
C934       C1398   1.488       .  S
Zr935       O936   2.434       .  S
Zr935       O937   2.435       .  S
Zr935       O941   2.302       .  S
Zr935       O965   2.292       .  S
Zr935       O942   2.384       .  S
Zr935       O967   2.381       .  S
O936        H979   0.990       .  S
O937        H978   0.990       .  S
O937        H982   0.990       .  S
Zr938       O939   2.434       .  S
Zr938       O940   2.433       .  S
Zr938       O941   2.298       .  S
Zr938       O968   2.289       .  S
Zr938       O942   2.387       .  S
Zr938       O966   2.381       .  S
O939        H980   0.990       .  S
O939        H983   0.990       .  S
O940        H973   0.990       .  S
O941       Zr961   2.260       .  S
O942       Zr962   2.378       .  S
O942        H969   0.965       .  S
O943       Zr955   2.500       .  S
O943        C945   1.296       .  A
O944       Zr962   2.342       .  S
O944        C945   1.270       .  A
C945       C1381   1.476       .  S
O946       Zr958   2.486       .  S
O946        C948   1.294       .  A
O947       Zr961   2.386       .  S
O947        C948   1.275       .  A
C948       C1368   1.483       .  S
O949       Zr958   2.491       .  S
O949        C951   1.292       .  A
O950       Zr962   2.384       .  S
O950        C951   1.273       .  A
C951       C1361   1.489       .  S
O952       Zr955   2.543       .  S
O952        C954   1.306       .  A
O953       Zr961   2.331       .  S
O953        C954   1.259       .  A
C954       C1388   1.512       .  S
Zr955       O956   2.436       .  S
Zr955       O957   2.435       .  S
Zr955       O964   2.290       .  S
Zr955       O965   2.298       .  S
Zr955       O963   2.394       .  S
Zr955       O967   2.353       .  S
O956        H976   0.989       .  S
O956        H981   0.990       .  S
O957        H977   0.990       .  S
Zr958       O959   2.441       .  S
Zr958       O960   2.435       .  S
Zr958       O964   2.299       .  S
Zr958       O968   2.282       .  S
Zr958       O963   2.393       .  S
Zr958       O966   2.372       .  S
O959        H975   0.989       .  S
O960        H974   0.990       .  S
O960        H984   0.990       .  S
Zr961       O964   2.270       .  S
Zr961       O966   2.375       .  S
Zr961       O967   2.371       .  S
Zr962       O965   2.261       .  S
Zr962       O968   2.264       .  S
Zr962       O963   2.379       .  S
O963        H971   0.966       .  S
O966        H970   0.965       .  S
O967        H972   0.963       .  S
O985       Zr997   2.449       .  S
O985        C987   1.293       .  A
O986      Zr1023   2.531       .  S
O986        C987   1.302       .  A
O988      Zr1000   2.366       .  S
O988        C990   1.272       .  A
O989      Zr1024   2.483   1_556  S
O989        C990   1.298       .  A
C990       C1391   1.488       .  S
O991      Zr1000   2.388       .  S
O991        C993   1.276       .  A
O992        C993   1.296       .  A
C993       C1451   1.489       .  S
O994        C996   1.289       .  A
O995      Zr1024   2.563       .  S
O995        C996   1.309       .  A
C996       C1300   1.540       .  S
Zr997       O999   2.435       .  S
Zr997      O1027   2.363       .  S
Zr997      O1029   2.350       .  S
O998       H1041   0.989   1_554  S
O999       H1040   0.990       .  S
O999       H1044   0.990       .  S
Zr1000     O1001   2.438       .  S
Zr1000     O1002   2.435       .  S
Zr1000     O1004   2.353       .  S
Zr1000     O1003   2.341       .  S
Zr1000     O1028   2.375       .  S
Zr1000     O1030   2.366       .  S
O1001      H1042   0.990       .  S
O1001      H1045   0.990       .  S
O1002      H1035   0.990       .  S
O1004     Zr1024   2.394   1_556  S
O1004      H1031   0.965       .  S
O1005     Zr1017   2.373       .  S
O1005      C1007   1.257       .  A
O1006      C1007   1.296       .  A
C1007      C1378   1.487       .  S
O1008     Zr1020   2.637       .  S
O1009     Zr1023   2.428       .  S
O1009      C1010   1.293       .  A
O1011     Zr1020   2.653   1_556  S
O1011      C1013   1.331   1_556  A
O1012     Zr1024   2.416       .  S
O1012      C1013   1.291       .  A
C1013      C1193   1.565   1_554  S
O1014     Zr1017   2.389       .  S
O1014      C1016   1.269       .  A
O1015     Zr1023   2.495       .  S
O1015      C1016   1.291       .  A
C1016      C1438   1.516       .  S
Zr1017     O1018   2.431       .  S
Zr1017     O1019   2.439       .  S
Zr1017     O1025   2.402       .  S
Zr1017     O1026   2.383       .  S
Zr1017     O1029   2.375       .  S
Zr1017     O1027   2.371       .  S
O1018      H1038   0.990       .  S
O1018      H1043   0.989       .  S
O1019      H1039   0.988       .  S
Zr1020     O1022   2.434   1_554  S
Zr1020     O1030   2.394   1_554  S
Zr1020     O1028   2.401   1_554  S
O1021      H1037   0.990       .  S
O1022      H1036   0.990       .  S
O1022      H1046   0.990       .  S
Zr1023     O1026   2.434       .  S
Zr1023     O1029   2.421       .  S
Zr1024     O1030   2.411   1_554  S
O1025      H1033   0.965       .  S
O1028      H1032   0.964       .  S
O1029      H1034   0.959       .  S
O1047     Zr1059   2.418       .  S
O1047      C1049   1.286       .  A
O1048     Zr1085   2.582       .  S
O1048      C1049   1.313       .  A
O1050     Zr1062   2.393       .  S
O1050      C1052   1.268       .  A
O1051     Zr1086   2.467   1_556  S
O1051      C1052   1.287       .  A
C1052      C1471   1.498       .  S
O1053     Zr1062   2.395       .  S
O1053      C1055   1.277       .  A
O1054      C1055   1.301       .  A
C1055      C1568   1.509       .  S
O1056      C1058   1.284       .  A
O1057     Zr1086   2.560       .  S
O1057      C1058   1.309       .  A
Zr1059     O1061   2.439       .  S
Zr1059     O1089   2.372       .  S
Zr1059     O1091   2.352       .  S
O1060      H1103   0.989       .  S
O1061      H1102   0.990       .  S
O1061      H1106   0.990       .  S
Zr1062     O1063   2.440       .  S
Zr1062     O1064   2.437       .  S
Zr1062     O1066   2.371       .  S
Zr1062     O1065   2.363       .  S
Zr1062     O1090   2.385       .  S
Zr1062     O1092   2.376       .  S
O1063      H1104   0.990       .  S
O1063      H1107   0.990       .  S
O1064      H1097   0.990       .  S
O1066     Zr1086   2.416   1_556  S
O1066      H1093   0.964       .  S
O1067     Zr1079   2.376       .  S
O1067      C1069   1.274       .  A
O1068      C1069   1.298       .  A
C1069      C1461   1.497       .  S
O1070     Zr1082   2.624       .  S
O1071     Zr1085   2.444       .  S
O1071      C1072   1.297       .  A
C1072      C1202   1.566   1_545  S
O1073     Zr1082   2.621       .  S
O1073      C1075   1.323       .  A
O1074     Zr1086   2.443   1_556  S
O1074      C1075   1.297       .  A
O1076     Zr1079   2.394       .  S
O1076      C1078   1.267       .  A
O1077     Zr1085   2.490       .  S
O1077      C1078   1.290       .  A
C1078      C1561   1.492       .  S
Zr1079     O1080   2.440       .  S
Zr1079     O1081   2.430       .  S
Zr1079     O1087   2.368       .  S
Zr1079     O1088   2.370       .  S
Zr1079     O1091   2.372       .  S
Zr1079     O1089   2.356       .  S
O1080      H1100   0.990       .  S
O1080      H1105   0.989       .  S
O1081      H1101   0.990       .  S
Zr1082     O1084   2.437       .  S
Zr1082     O1092   2.391       .  S
Zr1082     O1090   2.415       .  S
O1083      H1099   0.990       .  S
O1084      H1098   0.990       .  S
O1084      H1108   0.990       .  S
Zr1085     O1088   2.429       .  S
Zr1085     O1091   2.391       .  S
Zr1086     O1092   2.428   1_554  S
O1087      H1095   0.965       .  S
O1090      H1094   0.965       .  S
O1091      H1096   0.960       .  S
O1109     Zr1121   2.427       .  S
O1109      C1111   1.288       .  A
O1110     Zr1147   2.578       .  S
O1110      C1111   1.311       .  A
C1111      C1179   1.551       .  S
O1112     Zr1124   2.406       .  S
O1112      C1114   1.270       .  A
O1113     Zr1148   2.451       .  S
O1113      C1114   1.280       .  A
C1114      C1508   1.493       .  S
O1115     Zr1124   2.380       .  S
O1115      C1117   1.266       .  A
O1116      C1117   1.301       .  A
C1117      C1531   1.489       .  S
O1118      C1120   1.285       .  A
O1119     Zr1148   2.561       .  S
O1119      C1120   1.309       .  A
Zr1121     O1123   2.430       .  S
Zr1121     O1151   2.375       .  S
Zr1121     O1153   2.351       .  S
O1122      H1165   0.990       .  S
O1123      H1164   0.989       .  S
O1123      H1168   0.990       .  S
Zr1124     O1125   2.432       .  S
Zr1124     O1126   2.434       .  S
Zr1124     O1128   2.373       .  S
Zr1124     O1127   2.396       .  S
Zr1124     O1152   2.387       .  S
Zr1124     O1154   2.364       .  S
O1125      H1166   0.989       .  S
O1125      H1169   0.989       .  S
O1126      H1159   0.990       .  S
O1128     Zr1148   2.411       .  S
O1128      H1155   0.960       .  S
O1129     Zr1141   2.368       .  S
O1129      C1131   1.267       .  A
O1130      C1131   1.296       .  A
C1131      C1501   1.467       .  S
O1132     Zr1144   2.618       .  S
O1133     Zr1147   2.432       .  S
O1133      C1134   1.296       .  A
C1134      C1326   1.551   1_565  S
O1135     Zr1144   2.610   1_554  S
O1135      C1137   1.320       .  A
O1136     Zr1148   2.450   1_554  S
O1136      C1137   1.298       .  A
O1138     Zr1141   2.386       .  S
O1138      C1140   1.267       .  A
O1139     Zr1147   2.471       .  S
O1139      C1140   1.282       .  A
C1140      C1521   1.501       .  S
Zr1141     O1142   2.444       .  S
Zr1141     O1143   2.440       .  S
Zr1141     O1149   2.394       .  S
Zr1141     O1150   2.356       .  S
Zr1141     O1153   2.371       .  S
Zr1141     O1151   2.372       .  S
O1142      H1162   0.990       .  S
O1142      H1167   0.990       .  S
O1143      H1163   0.989       .  S
Zr1144     O1146   2.437       .  S
Zr1144     O1154   2.388       .  S
Zr1144     O1152   2.400       .  S
O1145      H1161   0.990       .  S
O1146      H1160   0.990       .  S
O1146      H1170   0.990       .  S
Zr1147     O1150   2.441       .  S
Zr1147     O1153   2.402       .  S
Zr1148     O1154   2.433       .  S
O1149      H1157   0.965       .  S
O1152      H1156   0.964       .  S
O1153      H1158   0.964       .  S
O1171     Zr1183   2.393       .  S
O1171      C1173   1.268       .  A
O1172      C1173   1.299       .  A
C1173      C1548   1.499       .  S
O1174      C1176   1.290       .  A
O1175     Zr1210   2.536       .  S
O1175      C1176   1.302       .  A
C1176      C1244   1.534       .  S
O1177     Zr1186   2.416       .  S
O1177      C1179   1.286       .  A
O1178     Zr1209   2.585       .  S
O1178      C1179   1.313       .  A
O1180     Zr1183   2.392       .  S
O1180      C1182   1.267       .  A
O1181     Zr1210   2.491       .  S
O1181      C1182   1.286       .  A
C1182      C1411   1.505       .  S
Zr1183     O1184   2.436       .  S
Zr1183     O1185   2.440       .  S
Zr1183     O1189   2.382       .  S
Zr1183     O1190   2.374       .  S
Zr1183     O1213   2.379       .  S
Zr1183     O1215   2.378       .  S
O1184      H1227   0.990       .  S
O1185      H1226   0.990       .  S
O1185      H1230   0.990       .  S
Zr1186     O1188   2.432       .  S
Zr1186     O1214   2.358       .  S
Zr1186     O1216   2.358       .  S
O1187      H1228   0.989       .  S
O1187      H1231   0.990       .  S
O1188      H1221   0.990       .  S
O1190     Zr1210   2.399       .  S
O1190      H1217   0.950       .  S
O1191     Zr1203   2.612   1_554  S
O1191      C1193   1.321   1_554  A
O1192     Zr1210   2.459       .  S
O1192      C1193   1.300       .  A
O1194     Zr1206   2.397       .  S
O1194      C1196   1.269       .  A
O1195     Zr1209   2.470       .  S
O1195      C1196   1.291       .  A
C1196      C1538   1.496       .  S
O1197     Zr1206   2.376       .  S
O1197      C1199   1.273       .  A
O1198      C1199   1.297       .  A
C1199      C1401   1.477       .  S
O1200     Zr1203   2.645       .  S
O1201     Zr1209   2.423       .  S
O1201      C1202   1.293       .  A
Zr1203     O1205   2.436       .  S
Zr1203     O1215   2.397       .  S
Zr1203     O1213   2.397       .  S
O1204      H1224   0.990       .  S
O1204      H1229   0.990       .  S
O1205      H1225   0.990       .  S
Zr1206     O1207   2.425       .  S
Zr1206     O1208   2.442       .  S
Zr1206     O1212   2.353       .  S
Zr1206     O1211   2.376       .  S
Zr1206     O1216   2.354       .  S
Zr1206     O1214   2.371       .  S
O1207      H1223   0.989       .  S
O1208      H1222   0.990       .  S
O1208      H1232   0.990       .  S
Zr1209     O1212   2.411       .  S
Zr1209     O1214   2.398       .  S
Zr1210     O1213   2.443       .  S
O1211      H1219   0.965       .  S
O1214      H1218   0.965       .  S
O1215      H1220   0.965       .  S
O1233     Zr1245   2.426       .  S
O1233      C1235   1.288       .  A
O1234     Zr1271   2.546       .  S
O1234      C1235   1.305       .  A
O1236     Zr1248   2.389       .  S
O1236      C1238   1.266       .  A
O1237     Zr1272   2.502       .  S
O1237      C1238   1.295       .  A
C1238      C1428   1.514       .  S
O1239     Zr1248   2.367       .  S
O1239      C1241   1.258       .  A
O1240      C1241   1.293       .  A
C1241      C1491   1.479       .  S
O1242      C1244   1.281       .  A
O1243     Zr1272   2.568       .  S
O1243      C1244   1.310       .  A
Zr1245     O1247   2.437       .  S
Zr1245     O1275   2.369       .  S
Zr1245     O1277   2.353       .  S
O1246      H1289   0.990       .  S
O1247      H1288   0.990       .  S
O1247      H1292   0.990       .  S
Zr1248     O1249   2.442       .  S
Zr1248     O1250   2.438       .  S
Zr1248     O1252   2.385       .  S
Zr1248     O1251   2.376       .  S
Zr1248     O1276   2.397       .  S
Zr1248     O1278   2.367       .  S
O1249      H1290   0.987       .  S
O1249      H1293   0.988       .  S
O1250      H1283   0.990       .  S
O1252     Zr1272   2.399       .  S
O1252      H1279   0.965       .  S
O1253     Zr1265   2.410       .  S
O1253      C1255   1.281       .  A
O1254      C1255   1.296       .  A
C1255      C1421   1.497       .  S
O1256     Zr1268   2.644       .  S
O1257     Zr1271   2.425       .  S
O1257      C1258   1.295       .  A
O1259     Zr1268   2.653   1_554  S
O1259      C1261   1.331       .  A
O1260     Zr1272   2.394   1_554  S
O1260      C1261   1.286       .  A
C1261      C1317   1.563       .  S
O1262     Zr1265   2.408       .  S
O1262      C1264   1.272       .  A
O1263     Zr1271   2.479       .  S
O1263      C1264   1.290       .  A
C1264      C1478   1.503       .  S
Zr1265     O1266   2.437       .  S
Zr1265     O1267   2.435       .  S
Zr1265     O1273   2.378       .  S
Zr1265     O1274   2.361       .  S
Zr1265     O1277   2.369       .  S
Zr1265     O1275   2.372       .  S
O1266      H1286   0.989       .  S
O1266      H1291   0.989       .  S
O1267      H1287   0.990       .  S
Zr1268     O1270   2.435       .  S
Zr1268     O1278   2.385       .  S
Zr1268     O1276   2.391       .  S
O1269      H1285   0.990       .  S
O1270      H1284   0.990       .  S
O1270      H1294   0.990       .  S
Zr1271     O1274   2.430       .  S
Zr1271     O1277   2.402       .  S
Zr1272     O1278   2.415       .  S
O1273      H1281   0.965       .  S
O1276      H1280   0.965       .  S
O1277      H1282   0.964       .  S
O1295     Zr1307   2.399       .  S
O1295      C1297   1.277       .  A
O1296     Zr1333   2.486       .  S
O1296      C1297   1.298       .  A
C1297      C1591   1.488       .  S
O1298     Zr1310   2.425       .  S
O1298      C1300   1.287       .  A
O1299     Zr1334   2.562       .  S
O1299      C1300   1.309       .  A
O1304     Zr1307   2.388       .  S
O1304      C1306   1.267       .  A
O1305     Zr1334   2.472   1_556  S
O1305      C1306   1.284       .  A
C1306      C1371   1.496       .  S
Zr1307     O1308   2.436       .  S
Zr1307     O1309   2.439       .  S
Zr1307     O1313   2.363       .  S
Zr1307     O1314   2.373       .  S
Zr1307     O1337   2.369       .  S
Zr1307     O1339   2.379       .  S
O1308      H1351   0.990       .  S
O1309      H1350   0.989       .  S
O1309      H1354   0.990       .  S
Zr1310     O1311   2.437   1_554  S
Zr1310     O1314   2.359   1_554  S
Zr1310     O1313   2.367   1_554  S
O1311      H1352   0.990       .  S
O1311      H1355   0.990       .  S
O1312      H1345   0.989       .  S
O1313     Zr1333   2.377       .  S
O1314     Zr1334   2.410   1_556  S
O1314      H1341   0.963       .  S
O1315     Zr1327   2.606       .  S
O1315      C1317   1.320   1_556  A
O1316     Zr1334   2.465       .  S
O1316      C1317   1.303       .  A
O1318     Zr1330   2.391       .  S
O1318      C1320   1.267       .  A
O1319      C1320   1.290       .  A
C1320      C1581   1.507       .  S
O1321     Zr1330   2.408       .  S
O1321      C1323   1.272       .  A
O1322      C1323   1.296       .  A
C1323      C1358   1.483       .  S
O1324     Zr1327   2.606       .  S
O1325      C1326   1.292       .  A
Zr1327     O1329   2.434       .  S
Zr1327     O1339   2.424       .  S
Zr1327     O1337   2.389       .  S
O1328      H1348   0.990       .  S
O1328      H1353   0.990       .  S
O1329      H1349   0.990       .  S
Zr1330     O1331   2.442       .  S
Zr1330     O1332   2.446       .  S
Zr1330     O1336   2.381       .  S
Zr1330     O1335   2.385       .  S
Zr1330     O1340   2.369       .  S
Zr1330     O1338   2.391       .  S
O1331      H1347   0.990       .  S
O1332      H1346   0.988       .  S
O1332      H1356   0.988       .  S
Zr1333     O1339   2.429       .  S
Zr1334     O1337   2.432   1_554  S
O1335      H1343   0.965       .  S
O1338      H1342   0.962       .  S
O1339      H1344   0.966       .  S
C1357      C1358   1.419       .  A
C1357      C1362   1.418       .  A
C1357     Br1364   1.926       .  S
C1358      C1359   1.407       .  A
C1359      C1360   1.403       .  A
C1359     Br1366   1.927       .  S
C1360      C1361   1.404       .  A
C1360     Br1365   1.916       .  S
C1361      C1362   1.411       .  A
C1362     Br1363   1.926       .  S
C1367      C1368   1.405       .  A
C1367      C1372   1.410       .  A
C1367     Br1374   1.926       .  S
C1368      C1369   1.409       .  A
C1369      C1370   1.415       .  A
C1369     Br1376   1.929       .  S
C1370      C1371   1.416       .  A
C1370     Br1375   1.927       .  S
C1371      C1372   1.418       .  A
C1372     Br1373   1.930       .  S
C1377      C1378   1.412       .  A
C1377      C1382   1.405       .  A
C1377     Br1384   1.927       .  S
C1378      C1379   1.430       .  A
C1379      C1380   1.414       .  A
C1379     Br1386   1.932       .  S
C1380      C1381   1.397       .  A
C1380     Br1385   1.926       .  S
C1381      C1382   1.402       .  A
C1382     Br1383   1.913       .  S
C1387      C1388   1.412       .  A
C1387      C1392   1.412       .  A
C1387     Br1394   1.930       .  S
C1388      C1389   1.447       .  A
C1389      C1390   1.411       .  A
C1389     Br1396   1.944       .  S
C1390      C1391   1.397       .  A
C1390     Br1395   1.937       .  S
C1391      C1392   1.419       .  A
C1392     Br1393   1.936       .  S
C1397      C1398   1.403       .  A
C1397      C1402   1.411       .  A
C1397     Br1404   1.916       .  S
C1398      C1399   1.412       .  A
C1399      C1400   1.415       .  A
C1399     Br1406   1.926       .  S
C1400      C1401   1.412       .  A
C1400     Br1405   1.930       .  S
C1401      C1402   1.411       .  A
C1402     Br1403   1.928       .  S
C1407      C1408   1.393       .  A
C1407      C1412   1.408       .  A
C1407     Br1414   1.924       .  S
C1408      C1409   1.408       .  A
C1409      C1410   1.417       .  A
C1409     Br1416   1.924       .  S
C1410      C1411   1.422       .  A
C1410     Br1415   1.929       .  S
C1411      C1412   1.421       .  A
C1412     Br1413   1.913       .  S
C1417      C1418   1.413       .  A
C1417      C1422   1.408       .  A
C1417     Br1424   1.931       .  S
C1418      C1419   1.446       .  A
C1419      C1420   1.417       .  A
C1419     Br1426   1.944       .  S
C1420      C1421   1.404       .  A
C1420     Br1425   1.938       .  S
C1421      C1422   1.415       .  A
C1422     Br1423   1.932       .  S
C1427      C1428   1.438       .  A
C1427      C1432   1.432       .  A
C1427     Br1434   1.933       .  S
C1428      C1429   1.408       .  A
C1429      C1430   1.401       .  A
C1429     Br1436   1.928       .  S
C1430      C1431   1.406       .  A
C1430     Br1435   1.903       .  S
C1431      C1432   1.408       .  A
C1432     Br1433   1.925       .  S
C1437      C1438   1.434       .  A
C1437      C1442   1.418       .  A
C1437     Br1444   1.937       .  S
C1438      C1439   1.424       .  A
C1439      C1440   1.412       .  A
C1439     Br1446   1.931       .  S
C1440      C1441   1.405       .  A
C1440     Br1445   1.930       .  S
C1441      C1442   1.399       .  A
C1442     Br1443   1.929       .  S
C1447      C1448   1.450       .  A
C1447      C1452   1.415       .  A
C1447     Br1454   1.946       .  S
C1448      C1449   1.417       .  A
C1449      C1450   1.410       .  A
C1449     Br1456   1.932       .  S
C1450      C1451   1.416       .  A
C1450     Br1455   1.938       .  S
C1451      C1452   1.397       .  A
C1452     Br1453   1.937       .  S
C1457      C1458   1.443       .  A
C1457      C1462   1.414       .  A
C1457     Br1464   1.942       .  S
C1458      C1459   1.420       .  A
C1459      C1460   1.412       .  A
C1459     Br1466   1.936       .  S
C1460      C1461   1.420       .  A
C1460     Br1465   1.940       .  S
C1461      C1462   1.404       .  A
C1462     Br1463   1.940       .  S
C1467      C1468   1.408       .  A
C1467      C1472   1.409       .  A
C1467     Br1474   1.928       .  S
C1468      C1469   1.402       .  A
C1469      C1470   1.414       .  A
C1469     Br1476   1.924       .  S
C1470      C1471   1.428       .  A
C1470     Br1475   1.939       .  S
C1471      C1472   1.416       .  A
C1472     Br1473   1.931       .  S
C1477      C1478   1.424       .  A
C1477      C1482   1.422       .  A
C1477     Br1484   1.929       .  S
C1478      C1479   1.411       .  A
C1479      C1480   1.408       .  A
C1479     Br1486   1.930       .  S
C1480      C1481   1.403       .  A
C1480     Br1485   1.901       .  S
C1481      C1482   1.409       .  A
C1482     Br1483   1.925       .  S
C1487      C1488   1.401       .  A
C1487      C1492   1.410       .  A
C1487     Br1494   1.921       .  S
C1488      C1489   1.395       .  A
C1489      C1490   1.405       .  A
C1489     Br1496   1.924       .  S
C1490      C1491   1.420       .  A
C1490     Br1495   1.921       .  S
C1491      C1492   1.415       .  A
C1492     Br1493   1.925       .  S
C1497      C1498   1.399       .  A
C1497      C1502   1.412       .  A
C1497     Br1504   1.927       .  S
C1498      C1499   1.404       .  A
C1499      C1500   1.409       .  A
C1499     Br1506   1.908       .  S
C1500      C1501   1.405       .  A
C1500     Br1505   1.923       .  S
C1501      C1502   1.415       .  A
C1502     Br1503   1.928       .  S
C1507      C1508   1.407       .  A
C1507      C1512   1.402       .  A
C1507     Br1514   1.926       .  S
C1508      C1509   1.420       .  A
C1509      C1510   1.421       .  A
C1509     Br1516   1.927       .  S
C1510      C1511   1.411       .  A
C1510     Br1515   1.923       .  S
C1511      C1512   1.408       .  A
C1512     Br1513   1.915       .  S
C1517      C1518   1.412       .  A
C1517      C1522   1.412       .  A
C1517     Br1524   1.924       .  S
C1518      C1519   1.406       .  A
C1519      C1520   1.417       .  A
C1519     Br1526   1.925       .  S
C1520      C1521   1.426       .  A
C1520     Br1525   1.936       .  S
C1521      C1522   1.415       .  A
C1522     Br1523   1.932       .  S
C1527      C1528   1.399       .  A
C1527      C1532   1.414       .  A
C1527     Br1534   1.923       .  S
C1528      C1529   1.402       .  A
C1529      C1530   1.410       .  A
C1529     Br1536   1.919       .  S
C1530      C1531   1.414       .  A
C1530     Br1535   1.926       .  S
C1531      C1532   1.422       .  A
C1532     Br1533   1.924       .  S
C1537      C1538   1.422       .  A
C1537      C1542   1.407       .  A
C1537     Br1544   1.936       .  S
C1538      C1539   1.403       .  A
C1539      C1540   1.409       .  A
C1539     Br1546   1.941       .  S
C1540      C1541   1.440       .  A
C1540     Br1545   1.937       .  S
C1541      C1542   1.412       .  A
C1542     Br1543   1.933       .  S
C1547      C1548   1.423       .  A
C1547      C1552   1.420       .  A
C1547     Br1554   1.928       .  S
C1548      C1549   1.411       .  A
C1549      C1550   1.410       .  A
C1549     Br1556   1.928       .  S
C1550      C1551   1.412       .  A
C1550     Br1555   1.919       .  S
C1551      C1552   1.410       .  A
C1552     Br1553   1.927       .  S
C1557      C1558   1.396       .  A
C1557      C1562   1.408       .  A
C1557     Br1564   1.921       .  S
C1558      C1559   1.411       .  A
C1559      C1560   1.418       .  A
C1559     Br1566   1.922       .  S
C1560      C1561   1.416       .  A
C1560     Br1565   1.925       .  S
C1561      C1562   1.412       .  A
C1562     Br1563   1.910       .  S
C1567      C1568   1.422       .  A
C1567      C1572   1.414       .  A
C1567     Br1574   1.938       .  S
C1568      C1569   1.406       .  A
C1569      C1570   1.418       .  A
C1569     Br1576   1.936       .  S
C1570      C1571   1.444       .  A
C1570     Br1575   1.946   1_545  S
C1571      C1572   1.416       .  A
C1572     Br1573   1.935       .  S
C1577      C1578   1.407       .  A
C1577      C1582   1.423       .  A
C1577     Br1584   1.926       .  S
C1578      C1579   1.399       .  A
C1579      C1580   1.404       .  A
C1579     Br1586   1.903       .  S
C1580      C1581   1.412       .  A
C1580     Br1585   1.925       .  S
C1581      C1582   1.432       .  A
C1582     Br1583   1.931       .  S
C1587      C1588   1.414       .  A
C1587      C1592   1.415       .  A
C1587     Br1594   1.926       .  S
C1588      C1589   1.405       .  A
C1589      C1590   1.413       .  A
C1589     Br1596   1.920       .  S
C1590      C1591   1.416       .  A
C1590     Br1595   1.930       .  S
C1591      C1592   1.410       .  A
C1592     Br1593   1.929       .  S
