geometry optimzed in LAMMPS
_audit_creation_date              2020-11-30 
_audit_creation_method            'lammps2cif' 
_symmetry_space_group_name_H-M    'P1' 
_symmetry_Int_Tables_number       1 
_symmetry_cell_setting            triclinic 
loop_ 
_symmetry_equiv_pos_as_xyz 
  x,y,z 
_cell_length_a                    47.05541488 
_cell_length_b                    47.494223814844 
_cell_length_c                    46.6504456230182 
_cell_angle_alpha                 89.93332317535213 
_cell_angle_beta                  89.95127038071486 
_cell_angle_gamma                 90.00299400222079 
loop_ 
_atom_site_label 
_atom_site_type_symbol 
_atom_site_fract_x 
_atom_site_fract_y 
_atom_site_fract_z 
_atom_site_charge 
O1          O  0.46478973  0.02067930  0.21629465    -0.88300
C2          C  0.45596690  0.00687855  0.30278095     0.87700
Mg3        Mg  0.47227601  0.48946684  0.18572106     1.58100
O4          O  0.02249800  0.03818959  0.28268080    -0.88000
O5          O  0.48309783  0.06070392  0.23016953    -0.75400
C6          C  0.07999850  0.41636480  0.23805108     0.92800
O7          O  0.43951323  0.46659351  0.24744958    -0.75200
O8          O  0.05959437  0.41413649  0.22028072    -0.82700
Mg9        Mg  0.42996453  0.01336588  0.24585300     1.58000
C10         C  0.09843492  0.00336308  0.31614226     0.92700
O11         O  0.41459915  0.05897504  0.24699776    -0.81000
H12         H  0.04421030  0.06925979  0.26371086    -0.06300
C13         C  0.02354022  0.45322700  0.28880856     0.87600
O14         O  0.02184310  0.50081874  0.18336471    -0.75500
O15         O  0.45898183  0.02107858  0.28079895    -0.88200
O16         O  0.07625304  0.01708276  0.32332510    -0.81000
C17         C  0.49937514  0.06415862  0.34933851     0.92800
C18         C  0.41832145  0.08178584  0.26078451     0.92700
Mg19       Mg  0.06877803  0.48353464  0.25512448     1.58000
O20         O  0.08229177  0.43725029  0.25491002    -0.81000
O21         O  0.06014154  0.03019354  0.25625537    -0.75200
O22         O  0.48181538  0.06825189  0.32883744    -0.81000
O23         O  0.39931897  0.00673310  0.20867886    -0.82800
O24         O  0.01769790  0.43301155  0.16911997    -0.81100
C25         C  0.04232089  0.04690018  0.26768666     0.87100
O26         O  0.03986017  0.47786501  0.21962971    -0.88200
O27         O  0.03422570  0.47660998  0.28443377    -0.88300
O28         O  0.01583964  0.43728237  0.26835134    -0.75400
Mg29       Mg  0.48179059  0.06081138  0.27941321     1.58000
O30         O  0.02097147  0.04474237  0.34955470    -0.82800
H31         H  0.47732318  0.05019162  0.18839294    -0.06500
O32         O  0.47689319  0.45981819  0.22050940    -0.88000
H33         H  0.45544633  0.42792560  0.23827819    -0.06300
H34         H  0.06394704  0.50048031  0.19283667    -0.06500
C35         C  0.45718530  0.45042482  0.23515681     0.87100
C36         C  0.47480833  0.04405948  0.21063057     0.87700
C37         C  0.04293300  0.49310127  0.19840233     0.87700
H38         H  0.02022583  0.44625668  0.31080839    -0.06500
O39         O  0.47711917  0.99962547  0.31797814    -0.75500
Mg40       Mg  0.01751804  0.43838161  0.21875121     1.58000
H41         H  0.43493618  0.99996057  0.30887311    -0.06500
C42         C  0.40121944  0.49545506  0.18698299     0.92700
O43         O  0.48003134  0.45436299  0.15324576    -0.82700
C44         C  0.00044720  0.43776993  0.14850368     0.92800
O45         O  0.44032343  0.08591396  0.27616537    -0.82700
Mg46       Mg  0.02780219  0.00924716  0.31788461     1.58200
O47         O  0.42382257  0.48310331  0.17857284    -0.81000
O48         O  0.09947253  0.48854350  0.29219857    -0.82700
O49         O  0.00398451  0.27547604  0.04750702    -0.88300
C50         C  0.43561723  0.25452551  0.50324191     0.87700
Mg51       Mg  0.03772873  0.30103699  0.03086237     1.58100
O52         O  0.48769508  0.19801754  0.01130351    -0.88000
O53         O  0.50087010  0.23082904  0.06950455    -0.75400
C54         C  0.07198790  0.24973194  0.40677436     0.92800
O55         O  0.47478431  0.31089932  0.00390398    -0.75200
O56         O  0.07065571  0.27310362  0.42010048    -0.82700
Mg57       Mg  0.46386655  0.28891337  0.04637457     1.58000
C58         C  0.00984944  0.15288909  0.43591118     0.92700
O59         O  0.44798285  0.27150114  0.08939501    -0.81000
H60         H  0.00627471  0.17448110  0.03145535    -0.06300
C61         C  0.48939197  0.24622635  0.43378837     0.87600
O62         O  0.06371629  0.26210451  0.01813784    -0.75500
O63         O  0.45312839  0.25034522  0.02448741    -0.88200
O64         O  0.48425413  0.16113451  0.44789744    -0.81000
C65         C  0.41521751  0.17280274  0.50750521     0.92800
C66         C  0.43470967  0.24989204  0.09850799     0.92700
Mg67       Mg  0.04281499  0.20945220  0.45817763     1.58000
O68         O  0.05953550  0.22760876  0.41582986    -0.81000
O69         O  0.03122419  0.18695665  0.50033048    -0.75200
O70         O  0.42247877  0.18688572  0.03011307    -0.81000
O71         O  0.47507105  0.32980856  0.06956767    -0.82800
O72         O  0.08302288  0.31133432  0.47543683    -0.81100
C73         C  0.00551713  0.18751669  0.01236878     0.87100
O74         O  0.05359143  0.24761875  0.48065883    -0.88200
O75         O  0.49683238  0.22738855  0.45040800    -0.88300
O76         O  0.00545160  0.26814832  0.43598294    -0.75400
Mg77       Mg  0.46192034  0.21156382  0.04716914     1.58000
O78         O  0.42879610  0.17356702  0.48396670    -0.82800
H79         H  0.02905783  0.26021779  0.07842899    -0.06500
O80         O  0.01916015  0.29975733  0.49499382    -0.88000
H81         H  0.49418785  0.32793936  0.46877082    -0.06300
H82         H  0.08150670  0.22992964  0.99589898    -0.06500
C83         C  0.49548815  0.31444198  0.48745865     0.87100
C84         C  0.01100729  0.25677779  0.06448334     0.87700
C85         C  0.06583145  0.24657261  0.99611728     0.87700
H86         H  0.47113904  0.24283541  0.42011347    -0.06500
O87         O  0.43747176  0.23949877  0.48083936    -0.75500
Mg88       Mg  0.04427308  0.28687111  0.45859869     1.58000
H89         H  0.41980156  0.27100536  0.50413874    -0.06500
C90         C  0.49649571  0.34610228  0.06763031     0.92700
O91         O  0.07341438  0.32776906  0.01368282    -0.83100
C92         C  0.08718250  0.32816261  0.99022781     0.92800
O93         O  0.43528986  0.22648791  0.08512213    -0.82700
Mg94       Mg  0.46371791  0.20112859  0.46693754     1.58200
O95         O  0.01728684  0.34165963  0.04901017    -0.81000
O96         O  0.03130602  0.16914022  0.43389293    -0.82700
O97         O  0.21269145  0.27564123  0.22040241    -0.88300
C98         C  0.29471078  0.29849945  0.23582844     0.87700
Mg99       Mg  0.18288667  0.26918138  0.25497320     1.58100
O100        O  0.28478611  0.22802123  0.21473953    -0.88000
O101        O  0.23075423  0.25404343  0.18326596    -0.75400
C102        C  0.24688063  0.18364681  0.34697287     0.92800
O103        O  0.23680455  0.31390014  0.27147362    -0.75200
O104        O  0.22920823  0.20395656  0.34685045    -0.82700
Mg105      Mg  0.23629699  0.31444674  0.22201979     1.58000
C106        C  0.32757954  0.16438964  0.25909115     0.92700
O107        O  0.23717797  0.32143766  0.17298653    -0.81000
H108        H  0.27130561  0.19971243  0.18607812    -0.06300
C109        C  0.29207497  0.23968887  0.30172621     0.87600
O110        O  0.18916222  0.22122147  0.25290058    -0.75500
O111        O  0.27498340  0.29047818  0.22041679    -0.88200
O112        O  0.33222092  0.18730108  0.24573560    -0.81000
C113        C  0.34982626  0.25454777  0.18738333     0.92800
C114        C  0.25433699  0.31747790  0.15212539     0.92700
Mg115      Mg  0.26464806  0.18714147  0.27682260     1.58000
O116        O  0.26317033  0.17880769  0.32560145    -0.81000
O117        O  0.26434335  0.18859363  0.22755419    -0.75200
O118        O  0.32761848  0.26771754  0.17921741    -0.81000
O119        O  0.19521112  0.33995425  0.22356488    -0.82800
O120        O  0.17490675  0.23417364  0.32048617    -0.81100
C121        C  0.27374307  0.20525654  0.20848222     0.87100
O122        O  0.22649276  0.21177157  0.27911070    -0.88200
O123        O  0.28858919  0.22597096  0.27954961    -0.88300
O124        O  0.27117353  0.24782355  0.31677024    -0.75400
Mg125      Mg  0.27908862  0.26201784  0.18463595     1.58000
O126        O  0.35024120  0.23994172  0.21018432    -0.82800
H127        H  0.18848532  0.25511983  0.19207460    -0.06500
O128        O  0.21728757  0.27424008  0.28505546    -0.88000
H129        H  0.23071792  0.30309908  0.31325659    -0.06300
H130        H  0.20355794  0.18158123  0.26027427    -0.06500
C131        C  0.22809407  0.29722396  0.29089606     0.87100
C132        C  0.20960837  0.26159634  0.19835823     0.87700
C133        C  0.20627757  0.20383777  0.26429315     0.87700
H134        H  0.31336176  0.24560433  0.30800314    -0.06500
O135        O  0.31157520  0.28120001  0.24770865    -0.75500
Mg136      Mg  0.22306021  0.24013601  0.31513842     1.58000
H137        H  0.29714857  0.32075954  0.24000079    -0.06500
C138        C  0.17353093  0.33734689  0.23970182     0.92700
O139        O  0.15142861  0.26287598  0.29133680    -0.82700
C140        C  0.15230263  0.24726459  0.31344569     0.92800
O141        O  0.27306048  0.29814857  0.15293432    -0.82700
Mg142      Mg  0.31851955  0.23335232  0.24569669     1.58200
O143        O  0.17001118  0.31580369  0.25559624    -0.81000
O144        O  0.30521225  0.16066358  0.27404541    -0.82700
O145        O  0.28935329  0.48202231  0.03267356    -0.88300
C146        C  0.20288483  0.47386468  0.03888471     0.87700
Mg147      Mg  0.31381444  0.01784392  0.02632484     1.58100
O148        O  0.23046356  0.46200455  0.47062977    -0.88000
O149        O  0.28590587  0.44457269  0.00563312    -0.75400
C150        C  0.24290814  0.09763159  0.43551545     0.92800
O151        O  0.25178603  0.02075178  0.06445840    -0.75200
O152        O  0.25688617  0.10049183  0.45865512    -0.82700
Mg153      Mg  0.25884189  0.47511530  0.06638758     1.58000
C154        C  0.18599582  0.50022856  0.40160634     0.92700
O155        O  0.26832310  0.42805447  0.07308375    -0.81000
H156        H  0.25476532  0.44056346  0.44307172    -0.06300
C157        C  0.20070257  0.04058550  0.48423833     0.87600
O158        O  0.31390712  0.01910400  0.48056822    -0.75500
O159        O  0.22740890  0.46589197  0.03418834    -0.88200
O160        O  0.18251942  0.48160420  0.42112494    -0.81000
C161        C  0.17089826  0.41737920  0.98629235     0.92800
C162        C  0.25791979  0.40462946  0.06488835     0.92700
Mg163      Mg  0.24062313  0.02753785  0.43518514     1.58000
O164        O  0.23084205  0.07451860  0.42894475    -0.81000
O165        O  0.25198842  0.48243468  0.43471888    -0.75200
O166        O  0.19356991  0.41525223  0.00095413    -0.81000
O167        O  0.29294201  0.48396626  0.09962875    -0.82800
O168        O  0.30947137  0.08583627  0.49745493    -0.81100
C169        C  0.24582249  0.46064458  0.44921063     0.87100
O170        O  0.27322750  0.03614491  0.46608201    -0.88200
O171        O  0.21105591  0.02129049  0.46987794    -0.88300
O172        O  0.21619433  0.05922573  0.49593193    -0.75400
Mg173      Mg  0.23850480  0.43285161  0.00418639     1.58000
O174        O  0.16658051  0.43785984  0.47252278    -0.82800
H175        H  0.32342735  0.46309562  0.01583333    -0.06500
O176        O  0.27349577  0.03966513  0.02778284    -0.88000
H177        H  0.25094683  0.06259136  0.05558175    -0.06300
H178        H  0.30393537  0.02507601  0.43864075    -0.06500
C179        C  0.25872293  0.04202684  0.04952376     0.87100
C180        C  0.30058490  0.46321768  0.01831462     0.87700
C181        C  0.29723644  0.02705198  0.46077952     0.87700
H182        H  0.17795574  0.04125300  0.48747144    -0.06500
O183        O  0.18640401  0.48123935  0.01871144    -0.75500
Mg184      Mg  0.26398205  0.06974661  0.49577673     1.58000
H185        H  0.19545240  0.47526431  0.06091565    -0.06500
C186        C  0.31734003  0.00020759  0.09581489     0.92700
O187        O  0.33800816  0.05938035  0.02428189    -0.82700
C188        C  0.33247425  0.08293374  0.51143379     0.92800
O189        O  0.24556036  0.40184121  0.04083946    -0.82700
Mg190      Mg  0.18846897  0.48091798  0.47087501     1.58200
O191        O  0.32082067  0.01762222  0.07524603    -0.81000
O192        O  0.20578715  0.01915625  0.40318319    -0.82700
C193        C  0.26817148  0.35472752  0.08017946    -0.12200
C194        C  0.25672763  0.38139386  0.08601301     0.04800
C195        C  0.24324840  0.38608909  0.11256554    -0.07500
C196        C  0.24190032  0.36458250  0.13293766    -0.08300
C197        C  0.25371305  0.33788762  0.12772719    -0.02800
C198        C  0.26691915  0.33292451  0.10078935     0.04000
N199        N  0.27885818  0.30600926  0.09386914     0.66500
H200        H  0.27819521  0.35088132  0.05963627     0.15400
H201        H  0.23181392  0.36914055  0.15330236     0.15100
N202        N  0.23024321  0.41262101  0.11897409     0.74200
O203        O  0.26381492  0.28407590  0.09575164    -0.39200
O204        O  0.30324207  0.30448562  0.08267160    -0.39200
O205        O  0.20920658  0.42099523  0.10452072    -0.39900
O206        O  0.23791242  0.42631679  0.14080058    -0.40000
C207        C  0.25369506  0.13499274  0.36473115    -0.12200
C208        C  0.24698450  0.16309373  0.37117205     0.04800
C209        C  0.23810772  0.16974936  0.39943561    -0.07500
C210        C  0.23673701  0.14835488  0.42047870    -0.08300
C211        C  0.24337434  0.12031724  0.41364150    -0.02800
C212        C  0.25178458  0.11380046  0.38539015     0.04000
N213        N  0.25922263  0.08565565  0.37746026     0.66500
H214        H  0.26001185  0.12915618  0.34319210     0.15400
H215        H  0.23041200  0.15362261  0.44215511     0.15100
N216        N  0.23079700  0.19799784  0.40721563     0.74200
O217        O  0.24307552  0.07169426  0.36122677    -0.39200
O218        O  0.28303398  0.07566239  0.38461678    -0.39200
O219        O  0.20760047  0.20295014  0.41984926    -0.39900
O220        O  0.24848304  0.21767833  0.40364969    -0.40000
C221        C  0.37138903  0.11091843  0.53363996    -0.12200
C222        C  0.35384549  0.10587812  0.50984116     0.04800
C223        C  0.34711180  0.13314211  0.00647291    -0.07500
C224        C  0.36779165  0.15440300  0.00742088    -0.08300
C225        C  0.39195740  0.15204415  0.51029936    -0.02800
C226        C  0.39005378  0.13393045  0.53427732     0.04000
N227        N  0.40773660  0.13783208  0.55893039     0.66500
H228        H  0.37015696  0.09727348  0.55223758     0.15400
H229        H  0.36154576  0.17616022  0.00431923     0.15100
N230        N  0.31800637  0.14105962  0.00261742     0.74200
O231        O  0.40328280  0.15838560  0.57546323    -0.39200
O232        O  0.42399593  0.11823292  0.56698970    -0.39200
O233        O  0.30030286  0.13711830  0.02256493    -0.39900
O234        O  0.31067523  0.15482339  0.98067672    -0.40000
C235        C  0.12987463  0.35192823  0.01000564    -0.12200
C236        C  0.11061719  0.34868291  0.98738221     0.04800
C237        C  0.11222518  0.36663202  0.46973406    -0.07500
C238        C  0.13153531  0.38904276  0.46883432    -0.08300
C239        C  0.15000881  0.39383946  0.98736928    -0.02800
C240        C  0.14961246  0.37404099  0.01020089     0.04000
N241        N  0.16834043  0.37650381  0.03426870     0.66500
H242        H  0.12904997  0.33760645  0.02809824     0.15400
H243        H  0.13108664  0.40319116  0.45059839     0.15100
N244        N  0.09185438  0.36385111  0.44720104     0.74200
O245        O  0.16639221  0.39741983  0.05082288    -0.39200
O246        O  0.18424284  0.35616095  0.04105868    -0.39200
O247        O  0.06751419  0.37469714  0.44983321    -0.39900
O248        O  0.09893180  0.35257451  0.42378198    -0.40000
C249        C  0.08973510  0.26886918  0.36031821    -0.12200
C250        C  0.09017616  0.24743527  0.38099970     0.04800
C251        C  0.10883959  0.22433335  0.37730875    -0.07500
C252        C  0.12681414  0.22354896  0.35335717    -0.08300
C253        C  0.12751222  0.24563918  0.33329020    -0.02800
C254        C  0.10783692  0.26807393  0.33635035     0.04000
N255        N  0.10671828  0.29082725  0.31618145     0.66500
H256        H  0.07527317  0.28645282  0.36286918     0.15400
H257        H  0.14186529  0.20636848  0.35154857     0.15100
N258        N  0.11177011  0.20280840  0.39882819     0.74200
O259        O  0.09892104  0.28614157  0.29074689    -0.39200
O260        O  0.10820760  0.31592304  0.32493339    -0.39200
O261        O  0.11602429  0.17758522  0.39146240    -0.39900
O262        O  0.11485569  0.20951584  0.42482682    -0.40000
C263        C  0.38196346  0.27880488  0.15291094    -0.12200
C264        C  0.37504276  0.25444018  0.16837910     0.04800
C265        C  0.39043878  0.22935783  0.16306010    -0.07500
C266        C  0.41097204  0.22877054  0.14125461    -0.08300
C267        C  0.41654900  0.25265236  0.12442485    -0.02800
C268        C  0.40254206  0.27824041  0.13117526     0.04000
N269        N  0.40732399  0.30337299  0.11489041     0.66500
H270        H  0.37040554  0.29816143  0.15686066     0.15400
H271        H  0.42164744  0.20909026  0.13654258     0.15100
N272        N  0.38392659  0.20368815  0.17787019     0.74200
O273        O  0.39838883  0.30504071  0.08944012    -0.39200
O274        O  0.41640168  0.32522292  0.12723698    -0.39200
O275        O  0.35974297  0.19251819  0.17506678    -0.39900
O276        O  0.40348171  0.19010699  0.19018852    -0.40000
C277        C  0.36689061  0.09413047  0.25862445    -0.12200
C278        C  0.39536881  0.10319081  0.25971327     0.04800
C279        C  0.40111089  0.13225956  0.26030685    -0.07500
C280        C  0.37864266  0.15157945  0.25947003    -0.08300
C281        C  0.35014651  0.14260085  0.25841630    -0.02800
C282        C  0.34422706  0.11343424  0.25803458     0.04000
N283        N  0.31560690  0.10305288  0.25627390     0.66500
H284        H  0.36220209  0.07179331  0.25822398     0.15400
H285        H  0.38355647  0.17387208  0.25999905     0.15100
N286        N  0.42965282  0.14251975  0.26108060     0.74200
O287        O  0.29846498  0.11341168  0.23832492    -0.39200
O288        O  0.30838658  0.08143292  0.27026869    -0.39200
O289        O  0.44465362  0.14215915  0.23864996    -0.39900
O290        O  0.43895979  0.15433123  0.28339523    -0.40000
C291        C  0.11929571  0.39119317  0.21381020    -0.12200
C292        C  0.10279193  0.39503182  0.23855243     0.04800
C293        C  0.11073361  0.38131100  0.26419217    -0.07500
C294        C  0.13440810  0.36329154  0.26422898    -0.08300
C295        C  0.15069327  0.35894635  0.23932883    -0.02800
C296        C  0.14320331  0.37354004  0.21399815     0.04000
N297        N  0.15912923  0.37013431  0.18808930     0.66500
H298        H  0.11381297  0.40232898  0.19428176     0.15400
H299        H  0.13989168  0.35225277  0.28379932     0.15100
N300        N  0.09472585  0.38503627  0.29014608     0.74200
O301        O  0.15738815  0.34747802  0.17409236    -0.39200
O302        O  0.17241162  0.39079823  0.17756990    -0.39200
O303        O  0.06790813  0.38434239  0.28967716    -0.39900
O304        O  0.10736563  0.38687712  0.31393081    -0.40000
C305        C  0.15732955  0.02631308  0.36666683    -0.12200
C306        C  0.16658463  0.50078892  0.37657320     0.04800
C307        C  0.15883778  0.47634287  0.36119321    -0.07500
C308        C  0.13755697  0.47819230  0.34002237    -0.08300
C309        C  0.12332596  0.00314079  0.33545630    -0.02800
C310        C  0.13500051  0.02796080  0.34684836     0.04000
N311        N  0.12418687  0.05492939  0.33874010     0.66500
H312        H  0.16555715  0.04566184  0.37575011     0.15400
H313        H  0.13130510  0.45932171  0.32861196     0.15100
N314        N  0.17226116  0.44968515  0.36670185     0.74200
O315        O  0.10475649  0.06625996  0.35338878    -0.39200
O316        O  0.13660319  0.06898293  0.31948148    -0.39200
O317        O  0.15829802  0.42710786  0.36431243    -0.39900
O318        O  0.19863562  0.44839709  0.37148256    -0.40000
C319        C  0.35292710  0.52352016  0.12866514    -0.12200
C320        C  0.33840519  0.99987216  0.11937941     0.04800
C321        C  0.36763923  0.00341330  0.11329852    -0.07500
C322        C  0.38757687  0.00067743  0.13526509    -0.08300
C323        C  0.37709977  0.49791108  0.16681172    -0.02800
C324        C  0.37577528  0.52099269  0.14779457     0.04000
N325        N  0.39792843  0.54174030  0.14713618     0.66500
H326        H  0.35310592  0.54085469  0.11354678     0.15400
H327        H  0.40989652  0.00338221  0.13014893     0.15100
N328        N  0.37767514  0.00839341  0.08469232     0.74200
O329        O  0.42334146  0.53443415  0.14266673    -0.39200
O330        O  0.34087474  0.96039928  0.20722623    -0.39200
O331        O  0.31481682  0.43474350  0.15052184    -0.39900
O332        O  0.37314817  0.99042310  0.06530474    -0.40000
C333        C  0.02329367  0.38224718  0.09403752    -0.12200
C334        C  0.49737599  0.37245538  0.08493723     0.04800
C335        C  0.47278384  0.38841639  0.09145237    -0.07500
C336        C  0.47442266  0.41005295  0.11208154    -0.08300
C337        C  0.00070751  0.41864370  0.12307698    -0.02800
C338        C  0.02521291  0.40350691  0.11483053     0.04000
N339        N  0.05212629  0.40891771  0.12790983     0.66500
H340        H  0.04222073  0.37023714  0.08895359     0.15400
H341        H  0.45529722  0.42155924  0.11754800     0.15100
N342        N  0.44610093  0.38296510  0.07750736     0.74200
O343        O  0.06237368  0.39147529  0.14552015    -0.39200
O344        O  0.06717230  0.42919223  0.11920606    -0.39200
O345        O  0.42302416  0.38653422  0.09085001    -0.39900
O346        O  0.44535890  0.37752756  0.05103238    -0.40000
C347        C  0.52598775  0.09082665  0.38680100    -0.12200
C348        C  0.49975187  0.08407948  0.37404615     0.04800
C349        C  0.97878776  0.09761964  0.38649393    -0.07500
C350        C  0.98155486  0.11906350  0.40699000    -0.08300
C351        C  0.00824682  0.12686099  0.41812066    -0.02800
C352        C  0.52852247  0.11269163  0.40703926     0.04000
N353        N  0.55594256  0.11867094  0.41920472     0.66500
H354        H  0.54492745  0.07955962  0.38029338     0.15400
H355        H  0.96263123  0.13036946  0.41354571     0.15100
N356        N  0.95109188  0.09066743  0.37592560     0.74200
O357        O  0.55830298  0.12399039  0.44560599    -0.39200
O358        O  0.57817377  0.11544743  0.40438703    -0.39200
O359        O  0.94178409  0.06585163  0.37836268    -0.39900
O360        O  0.93499982  0.10973841  0.36634655    -0.40000
O361        O  0.46380075  0.02035570  0.71968200    -0.88300
C362        C  0.45742987  0.00532096  0.80619805     0.87700
Mg363      Mg  0.47282717  0.49026145  0.68477238     1.58100
O364        O  0.02088525  0.03735012  0.78179130    -0.88000
O365        O  0.48172921  0.06051216  0.73364115    -0.75400
C366        C  0.08018813  0.41723533  0.73829885     0.92800
O367        O  0.43989993  0.46784606  0.74652284    -0.75200
O368        O  0.05747276  0.41320077  0.72404059    -0.82700
Mg369      Mg  0.42978695  0.01218816  0.74977933     1.58000
C370        C  0.09532843  0.00176133  0.81681276     0.92700
O371        O  0.41393865  0.05744695  0.75197347    -0.81000
H372        H  0.04359485  0.06808969  0.76346773    -0.06300
C373        C  0.02533602  0.45517625  0.79070452     0.87600
O374        O  0.01996685  0.49965309  0.68348872    -0.75500
O375        O  0.45951585  0.01990710  0.78435959    -0.88200
O376        O  0.07312973  0.01559560  0.82375531    -0.81000
C377        C  0.50144047  0.06299930  0.85249652     0.92800
C378        C  0.41746744  0.08027849  0.76574845     0.92700
Mg379      Mg  0.06953209  0.48532817  0.75407448     1.58000
O380        O  0.08479521  0.43986787  0.75201747    -0.81000
O381        O  0.05894553  0.02876162  0.75624245    -0.75200
O382        O  0.48337374  0.06726502  0.83244846    -0.81000
O383        O  0.39853226  0.00608204  0.71272872    -0.82800
O384        O  0.01518816  0.43158193  0.67268342    -0.81100
C385        C  0.04120909  0.04575665  0.76732585     0.87100
O386        O  0.03913104  0.47817799  0.72015116    -0.88200
O387        O  0.03605648  0.47826116  0.78502284    -0.88300
O388        O  0.01603411  0.43891788  0.77126917    -0.75400
Mg389      Mg  0.48172772  0.06011126  0.78290312     1.58000
O390        O  0.01748862  0.04460159  0.84864085    -0.82800
H391        H  0.47512028  0.05042913  0.69188400    -0.06500
O392        O  0.47745394  0.46095789  0.71982047    -0.88000
H393        H  0.45597903  0.42916040  0.73772356    -0.06300
H394        H  0.06236072  0.49948841  0.69154066    -0.06500
C395        C  0.45767790  0.45164003  0.73443303     0.87100
C396        C  0.47326473  0.04397297  0.71408682     0.87700
C397        C  0.04151956  0.49246415  0.69814734     0.87700
H398        H  0.02304390  0.44897238  0.81301660    -0.06500
O399        O  0.47914865  0.99834187  0.82072392    -0.75500
Mg400      Mg  0.01617160  0.43860439  0.72195220     1.58000
H401        H  0.43673682  0.99785324  0.81276063    -0.06500
C402        C  0.40177174  0.49586544  0.68591438     0.92700
O403        O  0.48083472  0.45472280  0.65272817    -0.82700
C404        C  0.99781730  0.43575269  0.65205138     0.92800
O405        O  0.43962522  0.08470613  0.78085177    -0.82700
Mg406      Mg  0.02464379  0.00862579  0.81730875     1.58200
O407        O  0.42464809  0.48378268  0.67790607    -0.81000
O408        O  0.10121748  0.49122238  0.79026837    -0.82700
O409        O  0.00638156  0.27214858  0.55196690    -0.88300
C410        C  0.43702462  0.25235467  0.00369959     0.87700
Mg411      Mg  0.03998911  0.29863272  0.53644010     1.58100
O412        O  0.48577541  0.19942851  0.50772695    -0.88000
O413        O  0.50128660  0.23059241  0.56653708    -0.75400
C414        C  0.06696666  0.24948011  0.90104761     0.92800
O415        O  0.47395236  0.31208579  0.50371320    -0.75200
O416        O  0.06663343  0.27300412  0.91425459    -0.82700
Mg417      Mg  0.46372404  0.28935404  0.54608270     1.58000
C418        C  0.00463902  0.15400897  0.93314415     0.92700
O419        O  0.44816228  0.27104185  0.58922983    -0.81000
H420        H  0.00966210  0.17141233  0.53461738    -0.06300
C421        C  0.49259301  0.24319966  0.93655936     0.87600
O422        O  0.06694079  0.26031852  0.52366352    -0.75500
O423        O  0.45211667  0.25153324  0.52359503    -0.88200
O424        O  0.48866329  0.15829665  0.95274322    -0.81000
C425        C  0.41814010  0.16985258  0.00938956     0.92800
C426        C  0.43519694  0.24906377  0.59799005     0.92700
Mg427      Mg  0.03810172  0.21087122  0.95369371     1.58000
O428        O  0.05369781  0.22799552  0.91046401    -0.81000
O429        O  0.02736844  0.18917423  0.99647708    -0.75200
O430        O  0.42201807  0.18816897  0.52881802    -0.81000
O431        O  0.47588308  0.32953739  0.56976814    -0.82800
O432        O  0.08039700  0.31272707  0.96891122    -0.81100
C433        C  0.00907862  0.18473128  0.51574604     0.87100
O434        O  0.04973157  0.24923815  0.97539274    -0.88200
O435        O  0.49996246  0.22478991  0.95369200    -0.88300
O436        O  0.00123374  0.26957691  0.93141950    -0.75400
Mg437      Mg  0.46160741  0.21215509  0.54493537     1.58000
O438        O  0.43321729  0.16981668  0.98687018    -0.82800
H439        H  0.03083225  0.25647926  0.58319944    -0.06500
O440        O  0.01637777  0.30213320  0.98962430    -0.88000
H441        H  0.49628445  0.32619446  0.96949061    -0.06300
H442        H  0.08549296  0.22864177  0.50129816    -0.06500
C443        C  0.49689816  0.31304243  0.98846707     0.87100
C444        C  0.01307490  0.25321629  0.56882751     0.87700
C445        C  0.06952440  0.24500826  0.50152555     0.87700
H446        H  0.47471449  0.23926567  0.92253724    -0.06500
O447        O  0.43952693  0.23643652  0.98200061    -0.75500
Mg448      Mg  0.04086691  0.28824873  0.95292862     1.58000
H449        H  0.42090567  0.26856520  0.00364860    -0.06500
C450        C  0.49714950  0.34598409  0.56749327     0.92700
O451        O  0.07541933  0.32641426  0.52009008    -0.83100
C452        C  0.08929791  0.32699000  0.49669528     0.92800
O453        O  0.43605516  0.22601226  0.58401612    -0.82700
Mg454      Mg  0.46707284  0.19823444  0.96997020     1.58200
O455        O  0.01831185  0.33867629  0.55454832    -0.81000
O456        O  0.02612316  0.17012783  0.93058545    -0.82700
O457        O  0.21032354  0.27185045  0.71623046    -0.88300
C458        C  0.29238094  0.29504639  0.73317001     0.87700
Mg459      Mg  0.17953424  0.26498997  0.74979044     1.58100
O460        O  0.28299540  0.22434229  0.71223491    -0.88000
O461        O  0.22955031  0.25054929  0.67948241    -0.75400
C462        C  0.24264577  0.18221746  0.84491717     0.92800
O463        O  0.23331761  0.31039313  0.76811991    -0.75200
O464        O  0.22434524  0.20181968  0.84308785    -0.82700
Mg465      Mg  0.23391455  0.31090340  0.71888140     1.58000
C466        C  0.32560268  0.16153001  0.75898754     0.92700
O467        O  0.23574048  0.31817910  0.67002335    -0.81000
H468        H  0.26974609  0.19546680  0.68401441    -0.06300
C469        C  0.28814564  0.23771505  0.79912305     0.87600
O470        O  0.18666072  0.21708404  0.74866000    -0.75500
O471        O  0.27264876  0.28676944  0.71792283    -0.88200
O472        O  0.33011543  0.18387346  0.74460452    -0.81000
C473        C  0.34854108  0.25110959  0.68566082     0.92800
C474        C  0.25378019  0.31488152  0.64981770     0.92700
Mg475      Mg  0.26212695  0.18421541  0.77516592     1.58000
O476        O  0.26017318  0.17713126  0.82459140    -0.81000
O477        O  0.26266914  0.18497800  0.72568559    -0.75200
O478        O  0.32656817  0.26477612  0.67766884    -0.81000
O479        O  0.19298960  0.33707085  0.72030936    -0.82800
O480        O  0.17013329  0.23073067  0.81578387    -0.81100
C481        C  0.27201912  0.20142904  0.70634115     0.87100
O482        O  0.22344120  0.20838061  0.77588764    -0.88200
O483        O  0.28567461  0.22325772  0.77728093    -0.88300
O484        O  0.26661460  0.24564858  0.81341016    -0.75400
Mg485      Mg  0.27780990  0.25869548  0.68204353     1.58000
O486        O  0.34854776  0.23594886  0.70812135    -0.82800
H487        H  0.18705683  0.25133104  0.68711842    -0.06500
O488        O  0.21295081  0.27092136  0.78080935    -0.88000
H489        H  0.22541567  0.29964483  0.80955622    -0.06300
H490        H  0.20141597  0.17770868  0.75676129    -0.06500
C491        C  0.22359248  0.29384873  0.78711366     0.87100
C492        C  0.20795243  0.25790498  0.69402480     0.87700
C493        C  0.20373586  0.20003409  0.76062328     0.87700
H494        H  0.30908108  0.24436535  0.80581924    -0.06500
O495        O  0.30944044  0.27791952  0.74502132    -0.75500
Mg496      Mg  0.21851066  0.23725394  0.81112010     1.58000
H497        H  0.29474794  0.31735551  0.73709954    -0.06500
C498        C  0.17025647  0.33369129  0.73474452     0.92700
O499        O  0.14728352  0.25909225  0.78562660    -0.82700
C500        C  0.14784726  0.24408427  0.80821000     0.92800
O501        O  0.27247582  0.29550357  0.65076101    -0.82700
Mg502      Mg  0.31629745  0.22999357  0.74362224     1.58200
O503        O  0.16571680  0.31103851  0.74861853    -0.81000
O504        O  0.30310482  0.15820644  0.77384636    -0.82700
O505        O  0.28948210  0.48277438  0.53323862    -0.88300
C506        C  0.20350349  0.47380128  0.54022040     0.87700
Mg507      Mg  0.31313494  0.01972364  0.52986479     1.58100
O508        O  0.23039244  0.46186891  0.96956629    -0.88000
O509        O  0.28664800  0.44542925  0.50601975    -0.75400
C510        C  0.24357143  0.09759294  0.93415693     0.92800
O511        O  0.24996804  0.02152486  0.56668701    -0.75200
O512        O  0.25894310  0.09919725  0.95647890    -0.82700
Mg513      Mg  0.25943358  0.47548848  0.56733362     1.58000
C514        C  0.18732348  0.50127938  0.90032552     0.92700
O515        O  0.26934583  0.42837812  0.57411015    -0.81000
H516        H  0.25502986  0.44051098  0.94224607    -0.06300
C517        C  0.20138390  0.04135453  0.98363968     0.87600
O518        O  0.31373134  0.01709217  0.97696631    -0.75500
O519        O  0.22802758  0.46589597  0.53537913    -0.88200
O520        O  0.18346895  0.48250013  0.91960591    -0.81000
C521        C  0.17182100  0.41690957  0.48881926     0.92800
C522        C  0.25947182  0.40483579  0.56554328     0.92700
Mg523      Mg  0.23922227  0.02755388  0.93351715     1.58000
O524        O  0.22997206  0.07525684  0.92768951    -0.81000
O525        O  0.25271363  0.48247746  0.93423781    -0.75200
O526        O  0.19489201  0.41516963  0.50280784    -0.81000
O527        O  0.29373349  0.48484395  0.60021928    -0.82800
O528        O  0.31159568  0.08461258  0.99424621    -0.81100
C529        C  0.24612815  0.46060015  0.94841666     0.87100
O530        O  0.27328951  0.03534331  0.96325213    -0.88200
O531        O  0.21093832  0.02169906  0.96926212    -0.88300
O532        O  0.21762164  0.05974220  0.99466586    -0.75400
Mg533      Mg  0.23944045  0.43315295  0.50511963     1.58000
O534        O  0.16629195  0.43863452  0.97021561    -0.82800
H535        H  0.32386441  0.46451879  0.51626248    -0.06500
O536        O  0.27218430  0.04085548  0.53056456    -0.88000
H537        H  0.24878326  0.06338420  0.55797998    -0.06300
H538        H  0.30306134  0.02321132  0.93522621    -0.06500
C539        C  0.25695452  0.04294698  0.55200884     0.87100
C540        C  0.30102444  0.46422341  0.51879834     0.87700
C541        C  0.29688763  0.02546666  0.95748711     0.87700
H542        H  0.17873985  0.04262218  0.98739315    -0.06500
O543        O  0.18683534  0.48105270  0.52015830    -0.75500
Mg544      Mg  0.26570145  0.06886069  0.99334500     1.58000
H545        H  0.19625601  0.47531202  0.56229328    -0.06500
C546        C  0.31582467  0.00119449  0.59953300     0.92700
O547        O  0.33686020  0.06166845  0.52754456    -0.82700
C548        C  0.33391863  0.08141551  0.00926272     0.92800
O549        O  0.24736500  0.40211247  0.54137629    -0.82700
Mg550      Mg  0.18871228  0.48144880  0.96942163     1.58200
O551        O  0.32005346  0.01872296  0.57913105    -0.81000
O552        O  0.20302860  0.01951912  0.90278846    -0.82700
C553        C  0.26904237  0.35443373  0.57940877    -0.12200
C554        C  0.25841409  0.38122153  0.58627174     0.04800
C555        C  0.24522508  0.38537539  0.61310128    -0.07500
C556        C  0.24339385  0.36312741  0.63262360    -0.08300
C557        C  0.25418990  0.33624098  0.62627184    -0.02800
C558        C  0.26722381  0.33188984  0.59915473     0.04000
N559        N  0.27824117  0.30486454  0.59109604     0.66500
H560        H  0.27871613  0.35102869  0.55861556     0.15400
H561        H  0.23355411  0.36716404  0.65321733     0.15100
N562        N  0.23275697  0.41195763  0.62058136     0.74200
O563        O  0.26304315  0.28311264  0.59376163    -0.39200
O564        O  0.30169093  0.30313437  0.57804514    -0.39200
O565        O  0.21403298  0.42283599  0.60467473    -0.39900
O566        O  0.23807511  0.42299975  0.64458513    -0.40000
C567        C  0.26858071  0.15189134  0.87985440    -0.12200
C568        C  0.24279439  0.16367032  0.87066970     0.04800
C569        C  0.21725790  0.15482241  0.88406123    -0.07500
C570        C  0.21790660  0.13343494  0.90489119    -0.08300
C571        C  0.24365689  0.12132647  0.91358408    -0.02800
C572        C  0.26939590  0.13090512  0.90111598     0.04000
N573        N  0.29633209  0.11842722  0.90836959     0.66500
H574        H  0.28821046  0.15828436  0.86956882     0.15400
H575        H  0.19814639  0.12617660  0.91429698     0.15100
N576        N  0.19033744  0.16622155  0.87573281     0.74200
O577        O  0.29874087  0.09203829  0.91062489    -0.39200
O578        O  0.31850291  0.13339519  0.90877929    -0.39200
O579        O  0.17194011  0.15044074  0.86439464    -0.39900
O580        O  0.18317311  0.19040869  0.88428088    -0.40000
C581        C  0.38389583  0.09808541  0.01446409    -0.12200
C582        C  0.35515434  0.10453982  0.00993615     0.04800
C583        C  0.35535498  0.12443266  0.48604256    -0.07500
C584        C  0.37435585  0.14715526  0.48659215    -0.08300
C585        C  0.39637207  0.14778563  0.01196698    -0.02800
C586        C  0.40455044  0.11935903  0.01543271     0.04000
N587        N  0.43379165  0.11179942  0.01969843     0.66500
H588        H  0.39038555  0.07635121  0.01717038     0.15400
H589        H  0.37609472  0.16059435  0.46787322     0.15100
N590        N  0.33870814  0.11995472  0.46067774     0.74200
O591        O  0.44861141  0.12448370  0.03817035    -0.39200
O592        O  0.44433211  0.09114881  0.00640155    -0.39200
O593        O  0.32623733  0.14042388  0.44883400    -0.39900
O594        O  0.33946985  0.09647603  0.44803590    -0.40000
C595        C  0.13192398  0.35185853  0.51533689    -0.12200
C596        C  0.11201947  0.34813485  0.49340147     0.04800
C597        C  0.11165359  0.36765595  0.96414023    -0.07500
C598        C  0.13103959  0.39007707  0.96440377    -0.08300
C599        C  0.15119462  0.39329330  0.49105798    -0.02800
C600        C  0.15163795  0.37396531  0.51432199     0.04000
N601        N  0.17139578  0.37677479  0.53748276     0.66500
H602        H  0.13182644  0.33779482  0.53365483     0.15400
H603        H  0.13122941  0.40459300  0.94646504     0.15100
N604        N  0.09198394  0.36541243  0.94092799     0.74200
O605        O  0.16960850  0.39745912  0.55435016    -0.39200
O606        O  0.18846779  0.35701262  0.54304576    -0.39200
O607        O  0.06892431  0.37895207  0.94163545    -0.39900
O608        O  0.09880796  0.35205473  0.91859411    -0.40000
C609        C  0.08803638  0.26946710  0.85635913    -0.12200
C610        C  0.08463846  0.24637731  0.87481848     0.04800
C611        C  0.09956305  0.22109085  0.86870107    -0.07500
C612        C  0.11844486  0.22013818  0.84540136    -0.08300
C613        C  0.12299735  0.24375432  0.82791250    -0.02800
C614        C  0.10673205  0.26827550  0.83296666     0.04000
N615        N  0.11007302  0.29275891  0.81552158     0.66500
H616        H  0.07655433  0.28883391  0.86046402     0.15400
H617        H  0.13087458  0.20122865  0.84193231     0.15100
N618        N  0.09766154  0.19688455  0.88705210     0.74200
O619        O  0.09309515  0.29693869  0.79506088    -0.39200
O620        O  0.12658793  0.31221349  0.82335370    -0.39200
O621        O  0.09482295  0.17270162  0.87621806    -0.39900
O622        O  0.10381058  0.19900930  0.91329742    -0.40000
C623        C  0.38270598  0.27638205  0.65380379    -0.12200
C624        C  0.37402040  0.25125705  0.66692819     0.04800
C625        C  0.38816834  0.22593549  0.65978939    -0.07500
C626        C  0.40935995  0.22600269  0.63859003    -0.08300
C627        C  0.41685020  0.25085535  0.62403360    -0.02800
C628        C  0.40400913  0.27650489  0.63271526     0.04000
N629        N  0.41085488  0.30264917  0.61909873     0.66500
H630        H  0.37213320  0.29595005  0.65919655     0.15400
H631        H  0.41895449  0.20616134  0.63243954     0.15100
N632        N  0.37958820  0.19956860  0.67198279     0.74200
O633        O  0.40111483  0.30805333  0.59450026    -0.39200
O634        O  0.42264700  0.32194925  0.63335811    -0.39200
O635        O  0.35516311  0.18985017  0.66677343    -0.39900
O636        O  0.39754273  0.18436254  0.68479920    -0.40000
C637        C  0.36585376  0.09188751  0.76314629    -0.12200
C638        C  0.39418906  0.10137005  0.76458763     0.04800
C639        C  0.39952054  0.13050429  0.76385960    -0.07500
C640        C  0.37685392  0.14944515  0.76108908    -0.08300
C641        C  0.34849835  0.14004408  0.75976798    -0.02800
C642        C  0.34297115  0.11081917  0.76084967     0.04000
N643        N  0.31456485  0.09996206  0.75862340     0.66500
H644        H  0.36146928  0.06948702  0.76353597     0.15400
H645        H  0.38146982  0.17180106  0.76060822     0.15100
N646        N  0.42787067  0.14117881  0.76517522     0.74200
O647        O  0.29794582  0.10919153  0.73956936    -0.39200
O648        O  0.30713949  0.07892655  0.77341030    -0.39200
O649        O  0.44057636  0.14808945  0.74240351    -0.39900
O650        O  0.43874771  0.14709778  0.78913805    -0.40000
C651        C  0.12917102  0.40290733  0.72572231    -0.12200
C652        C  0.10287926  0.39582404  0.73799252     0.04800
C653        C  0.09869569  0.36854983  0.74895754    -0.07500
C654        C  0.12094534  0.34890607  0.74734253    -0.08300
C655        C  0.14752485  0.35574285  0.73505931    -0.02800
C656        C  0.15124538  0.38311558  0.72354655     0.04000
N657        N  0.17675296  0.39108471  0.70886351     0.66500
H658        H  0.13223943  0.42378021  0.71683511     0.15400
H659        H  0.11739529  0.32810562  0.75602377     0.15100
N660        N  0.07241333  0.36074417  0.76251983     0.74200
O661        O  0.18200405  0.38072276  0.68451953    -0.39200
O662        O  0.19026932  0.41261912  0.71691358    -0.39200
O663        O  0.06220401  0.33644507  0.75882549    -0.39900
O664        O  0.06048545  0.37724810  0.77999055    -0.40000
C665        C  0.15438525  0.02574366  0.86648507    -0.12200
C666        C  0.16819828  0.50228088  0.87509403     0.04800
C667        C  0.16031598  0.47802617  0.85953556    -0.07500
C668        C  0.13932540  0.48017125  0.83813111    -0.08300
C669        C  0.12016594  0.00186298  0.83611056    -0.02800
C670        C  0.13229773  0.02695652  0.84635372     0.04000
N671        N  0.12234945  0.05375101  0.83656178     0.66500
H672        H  0.16311888  0.04529321  0.87458434     0.15400
H673        H  0.13294102  0.46137226  0.82667207     0.15100
N674        N  0.17323048  0.45121048  0.86525917     0.74200
O675        O  0.11186269  0.07108689  0.85411252    -0.39200
O676        O  0.12552517  0.06075860  0.81065305    -0.39200
O677        O  0.15842057  0.42904787  0.86489663    -0.39900
O678        O  0.19978531  0.44932310  0.86860043    -0.40000
C679        C  0.35931909  0.51665883  0.62055840    -0.12200
C680        C  0.33693293  0.99967902  0.62306223     0.04800
C681        C  0.36620842  0.99815912  0.61645500    -0.07500
C682        C  0.38608238  0.99539004  0.63853903    -0.08300
C683        C  0.37802821  0.49787421  0.66523414    -0.02800
C684        C  0.38206200  0.51271399  0.63936732     0.04000
N685        N  0.40921569  0.52426347  0.63197112     0.66500
H686        H  0.36339253  0.52747613  0.60050017     0.15400
H687        H  0.40841347  0.99435959  0.63291145     0.15100
N688        N  0.37613419  0.99809099  0.58732640     0.74200
O689        O  0.42883026  0.50817140  0.62348536    -0.39200
O690        O  0.32685228  0.97266124  0.71246746    -0.39200
O691        O  0.29851469  0.45739020  0.67441701    -0.39900
O692        O  0.36625623  0.98056263  0.56961022    -0.40000
C693        C  0.02245177  0.38036124  0.59845505    -0.12200
C694        C  0.49796034  0.37226772  0.58495550     0.04800
C695        C  0.47309097  0.38745965  0.59231268    -0.07500
C696        C  0.47466782  0.40916990  0.61282497    -0.08300
C697        C  0.99850168  0.41623355  0.62700088    -0.02800
C698        C  0.02364048  0.40225148  0.61860492     0.04000
N699        N  0.05054061  0.40973381  0.63068501     0.66500
H700        H  0.04191064  0.36929569  0.59320030     0.15400
H701        H  0.45535248  0.42005949  0.61890416     0.15100
N702        N  0.44612472  0.38107410  0.57940210     0.74200
O703        O  0.06454909  0.39185717  0.64487299    -0.39200
O704        O  0.06119895  0.43359763  0.62554541    -0.39200
O705        O  0.42354937  0.38288332  0.59393494    -0.39900
O706        O  0.44445371  0.37649586  0.55280267    -0.40000
C707        C  0.52863488  0.08793807  0.89096253    -0.12200
C708        C  0.50232683  0.08252195  0.87758611     0.04800
C709        C  0.97457540  0.09897290  0.88296473    -0.07500
C710        C  0.97678522  0.12046545  0.90346373    -0.08300
C711        C  0.00303592  0.12759346  0.91596772    -0.02800
C712        C  0.53178275  0.10939158  0.91163031     0.04000
N713        N  0.55915847  0.11394346  0.92454876     0.66500
H714        H  0.54718025  0.07593251  0.88463965     0.15400
H715        H  0.95793160  0.13254637  0.90865421     0.15100
N716        N  0.94745439  0.09319613  0.87050386     0.74200
O717        O  0.56106947  0.11982541  0.95086380    -0.39200
O718        O  0.58158619  0.10900082  0.91054943    -0.39200
O719        O  0.93317702  0.07233407  0.87909130    -0.39900
O720        O  0.93636247  0.11067683  0.85346645    -0.40000
O721        O  0.46490388  0.52218047  0.21701452    -0.88300
C722        C  0.45799831  0.50703039  0.30390959     0.87700
Mg723      Mg  0.47277575  0.98775550  0.18557287     1.58100
O724        O  0.02324715  0.53907448  0.28073674    -0.88000
O725        O  0.48398362  0.56165589  0.23170651    -0.75400
C726        C  0.08007656  0.91485406  0.24125451     0.92800
O727        O  0.43857505  0.96573427  0.24679341    -0.75200
O728        O  0.05905547  0.91205315  0.22434891    -0.82700
Mg729      Mg  0.43104360  0.51422964  0.24745804     1.58000
C730        C  0.09853926  0.50351225  0.31472150     0.92700
O731        O  0.41556309  0.55949446  0.24982920    -0.81000
H732        H  0.04544720  0.57048417  0.26295233    -0.06300
C733        C  0.02433445  0.95225226  0.29269348     0.87600
O734        O  0.02051718  0.99826218  0.18653092    -0.75500
O735        O  0.46075489  0.52142746  0.28202308    -0.88200
O736        O  0.07608143  0.51676311  0.32200751    -0.81000
C737        C  0.50092742  0.56403994  0.35112106     0.92800
C738        C  0.41947480  0.58218048  0.26368648     0.92700
Mg739      Mg  0.06839136  0.98229052  0.25742247     1.58000
O740        O  0.08273004  0.93612293  0.25758101    -0.81000
O741        O  0.06120298  0.53150606  0.25469028    -0.75200
O742        O  0.48349137  0.56825162  0.33054023    -0.81000
O743        O  0.39987296  0.50852563  0.21070876    -0.82800
O744        O  0.01643262  0.92957884  0.17414182    -0.81100
C745        C  0.04335364  0.54804217  0.26630506     0.87100
O746        O  0.03925157  0.97563716  0.22262798    -0.88200
O747        O  0.03426651  0.97572229  0.28726898    -0.88300
O748        O  0.01644890  0.93559189  0.27295529    -0.75400
Mg749      Mg  0.48319344  0.56142690  0.28103750     1.58000
O750        O  0.02044275  0.54484150  0.34789083    -0.82800
H751        H  0.47780948  0.55209776  0.18974674    -0.06500
O752        O  0.47637493  0.95819313  0.22055230    -0.88000
H753        H  0.45447528  0.92681749  0.23871728    -0.06300
H754        H  0.06279511  0.99799588  0.19512743    -0.06500
C755        C  0.45637458  0.94923987  0.23511422     0.87100
C756        C  0.47529770  0.54553396  0.21185354     0.87700
C757        C  0.04190097  0.99063265  0.20116416     0.87700
H758        H  0.02184922  0.94584718  0.31498943    -0.06500
O759        O  0.47929988  0.49991903  0.31896856    -0.75500
Mg760      Mg  0.01705088  0.93602817  0.22341524     1.58000
H761        H  0.43708166  0.49985035  0.31004997    -0.06500
C762        C  0.40204004  0.99323547  0.18531260     0.92700
O763        O  0.48066480  0.95267284  0.15329178    -0.82700
C764        C  0.99895584  0.93400435  0.15371166     0.92800
O765        O  0.44170638  0.58644408  0.27861448    -0.82700
Mg766      Mg  0.02764487  0.50961471  0.31567813     1.58200
O767        O  0.42521469  0.98120793  0.17828480    -0.81000
O768        O  0.09910868  0.98801660  0.29392258    -0.82700
O769        O  0.00398183  0.77320606  0.04990982    -0.88300
C770        C  0.43337361  0.75670464  0.50005957     0.87700
Mg771      Mg  0.03741805  0.79982021  0.03421603     1.58100
O772        O  0.48482687  0.69986472  0.00702107    -0.88000
O773        O  0.49869979  0.73126271  0.06571211    -0.75400
C774        C  0.07012732  0.74846984  0.40331653     0.92800
O775        O  0.47356378  0.81239963  0.00140805    -0.75200
O776        O  0.06930885  0.77203186  0.41637309    -0.82700
Mg777      Mg  0.46241404  0.79001239  0.04369840     1.58000
C778        C  0.00719759  0.65266909  0.43423273     0.92700
O779        O  0.44628384  0.77205234  0.08672326    -0.81000
H780        H  0.00683538  0.67310209  0.03222261    -0.06300
C781        C  0.48920284  0.74627533  0.43318956     0.87600
O782        O  0.06439883  0.76172215  0.02108271    -0.75500
O783        O  0.45083171  0.75211040  0.02129795    -0.88200
O784        O  0.48305761  0.66136049  0.44879090    -0.81000
C785        C  0.41145443  0.67513059  0.50490207     0.92800
C786        C  0.43289931  0.75034504  0.09552365     0.92700
Mg787      Mg  0.04083400  0.70924317  0.45551918     1.58000
O788        O  0.05737305  0.72665969  0.41274644    -0.81000
O789        O  0.02937714  0.68744179  0.49805056    -0.75200
O790        O  0.41973317  0.68898318  0.02601236    -0.81000
O791        O  0.47450889  0.83020748  0.06739511    -0.82800
O792        O  0.08263014  0.81126348  0.47135718    -0.81100
C793        C  0.00625308  0.68643663  0.01337230     0.87100
O794        O  0.05228853  0.74754765  0.47732272    -0.88200
O795        O  0.49599718  0.72756420  0.45023902    -0.88300
O796        O  0.00412580  0.76804187  0.43293885    -0.75400
Mg797      Mg  0.45942734  0.71286524  0.04323506     1.58000
O798        O  0.42681236  0.67488541  0.48253143    -0.82800
H799        H  0.02881456  0.75729073  0.08070667    -0.06500
O800        O  0.01866304  0.80022969  0.49146854    -0.88000
H801        H  0.49398745  0.82938372  0.46724424    -0.06300
H802        H  0.08281552  0.73034900  0.99817601    -0.06500
C803        C  0.49430642  0.81603437  0.48606844     0.87100
C804        C  0.01088994  0.75413833  0.06651767     0.87700
C805        C  0.06678232  0.74664798  0.99877649     0.87700
H806        H  0.47143363  0.74280711  0.41891945    -0.06500
O807        O  0.43583937  0.74098145  0.47819387    -0.75500
Mg808      Mg  0.04339613  0.78671013  0.45496893     1.58000
H809        H  0.41780884  0.77344547  0.49982787    -0.06500
C810        C  0.49610435  0.84627809  0.06559033     0.92700
O811        O  0.07254079  0.82777350  0.01781359    -0.83100
C812        C  0.08648560  0.82863788  0.99447323     0.92800
O813        O  0.43319501  0.72724796  0.08159740    -0.82700
Mg814      Mg  0.46216055  0.70194445  0.46608287     1.58200
O815        O  0.01608234  0.83965856  0.05280071    -0.81000
O816        O  0.02885897  0.66863446  0.43212031    -0.82700
O817        O  0.21190442  0.77368921  0.21825634    -0.88300
C818        C  0.29394854  0.79631669  0.23467334     0.87700
Mg819      Mg  0.18178791  0.76664067  0.25233777     1.58100
O820        O  0.28403624  0.72601868  0.21317337    -0.88000
O821        O  0.23035512  0.75220854  0.18124876    -0.75400
C822        C  0.24415334  0.68119382  0.34480668     0.92800
O823        O  0.23549885  0.81142821  0.27004980    -0.75200
O824        O  0.22686272  0.70175581  0.34437277    -0.82700
Mg825      Mg  0.23553393  0.81249378  0.22067818     1.58000
C826        C  0.32695362  0.66245938  0.25829597     0.92700
O827        O  0.23701639  0.82015518  0.17172726    -0.81000
H828        H  0.27125391  0.69745267  0.18443749    -0.06300
C829        C  0.29054628  0.73767430  0.30018122     0.87600
O830        O  0.18848128  0.71871195  0.24981362    -0.75500
O831        O  0.27420126  0.78841740  0.21920593    -0.88200
O832        O  0.33095106  0.68466301  0.24350488    -0.81000
C833        C  0.34919084  0.75284257  0.18589957     0.92800
C834        C  0.25429020  0.81611175  0.15097348     0.92700
Mg835      Mg  0.26383032  0.68493569  0.27531369     1.58000
O836        O  0.26132337  0.67632109  0.32416158    -0.81000
O837        O  0.26429243  0.68623514  0.22591285    -0.75200
O838        O  0.32706199  0.76642209  0.17828615    -0.81000
O839        O  0.19446658  0.83811511  0.22243200    -0.82800
O840        O  0.17304701  0.73122948  0.31747441    -0.81100
C841        C  0.27340652  0.70308306  0.20684824     0.87100
O842        O  0.22533133  0.70920186  0.27674431    -0.88200
O843        O  0.28751611  0.72381743  0.27802545    -0.88300
O844        O  0.26934557  0.74558610  0.31493896    -0.75400
Mg845      Mg  0.27858866  0.76026207  0.18323870     1.58000
O846        O  0.34959452  0.73762787  0.20832129    -0.82800
H847        H  0.18799498  0.75338503  0.18952022    -0.06500
O848        O  0.21579247  0.77161149  0.28276966    -0.88000
H849        H  0.22868358  0.80012846  0.31156054    -0.06300
H850        H  0.20303746  0.67909314  0.25701199    -0.06500
C851        C  0.22643884  0.79453776  0.28909353     0.87100
C852        C  0.20905384  0.75978381  0.19608956     0.87700
C853        C  0.20549584  0.70131245  0.26136873     0.87700
H854        H  0.31168503  0.74383972  0.30673708    -0.06500
O855        O  0.31088071  0.77892182  0.24633988    -0.75500
Mg856      Mg  0.22123641  0.73762165  0.31271501     1.58000
H857        H  0.29639642  0.81853692  0.23901839    -0.06500
C858        C  0.17281747  0.83514441  0.23857176     0.92700
O859        O  0.14978123  0.75984745  0.28809324    -0.82700
C860        C  0.15047416  0.74422830  0.31019925     0.92800
O861        O  0.27281621  0.79660756  0.15183463    -0.82700
Mg862      Mg  0.31769381  0.73102301  0.24405607     1.58200
O863        O  0.16900481  0.81313723  0.25367722    -0.81000
O864        O  0.30491937  0.65943005  0.27387678    -0.82700
O865        O  0.29141921  0.97842390  0.02832563    -0.88300
C866        C  0.20555112  0.97438775  0.03947532     0.87700
Mg867      Mg  0.31006511  0.52253723  0.03275605     1.58100
O868        O  0.23078065  0.96086133  0.47009824    -0.88000
O869        O  0.28552699  0.94068063  0.00228234    -0.75400
C870        C  0.23913951  0.59865527  0.43659097     0.92800
O871        O  0.24610050  0.52194616  0.06719545    -0.75200
O872        O  0.25338448  0.60172162  0.45949289    -0.82700
Mg873      Mg  0.26237451  0.97346976  0.06392085     1.58000
C874        C  0.18718370  0.99985819  0.40127132     0.92700
O875        O  0.27005723  0.92614098  0.07108771    -0.81000
H876        H  0.25436206  0.93870135  0.44250437    -0.06300
C877        C  0.19758363  0.54070426  0.48464570     0.87600
O878        O  0.31162335  0.52309911  0.48353435    -0.75500
O879        O  0.22933435  0.96509848  0.03357958    -0.88200
O880        O  0.18334440  0.98177810  0.42122116    -0.81000
C881        C  0.16878101  0.91899674  0.98952087     0.92800
C882        C  0.25868450  0.90297024  0.06347337     0.92700
Mg883      Mg  0.23847914  0.52891376  0.43639903     1.58000
O884        O  0.22676228  0.57549309  0.43084224    -0.81000
O885        O  0.25264167  0.98059215  0.43396936    -0.75200
O886        O  0.19204559  0.91589144  0.00295915    -0.81000
O887        O  0.29788678  0.98164065  0.09549366    -0.82800
O888        O  0.30526148  0.58849863  0.49863977    -0.81100
C889        C  0.24598668  0.95902590  0.44860285     0.87100
O890        O  0.27048070  0.53801270  0.46791857    -0.88200
O891        O  0.20876261  0.52162266  0.47060349    -0.88300
O892        O  0.21231817  0.55992683  0.49639514    -0.75400
Mg893      Mg  0.23767743  0.93141112  0.00345210     1.58000
O894        O  0.16634681  0.93872163  0.47245208    -0.82800
H895        H  0.32411386  0.95781847  0.01076910    -0.06500
O896        O  0.26876663  0.54254611  0.03206910    -0.88000
H897        H  0.24362990  0.56385852  0.05894340    -0.06300
H898        H  0.30230209  0.52808638  0.44128440    -0.06500
C899        C  0.25272218  0.54380316  0.05298151     0.87100
C900        C  0.30139875  0.95890417  0.01404499     0.87700
C901        C  0.29499267  0.52992981  0.46324992     0.87700
H902        H  0.17477498  0.54073978  0.48746065    -0.06500
O903        O  0.18855001  0.98268341  0.02015161    -0.75500
Mg904      Mg  0.25993715  0.57152294  0.49702469     1.58000
H905        H  0.19935601  0.97629468  0.06184261    -0.06500
C906        C  0.31141466  0.50333607  0.10225447     0.92700
O907        O  0.33231333  0.56533653  0.03208247    -0.82700
C908        C  0.32695737  0.58711430  0.51480754     0.92800
O909        O  0.24527928  0.90039339  0.03997243    -0.82700
Mg910      Mg  0.18950531  0.98118484  0.47067319     1.58200
O911        O  0.31512567  0.52166434  0.08246649    -0.81000
O912        O  0.20411281  0.51992166  0.40403335    -0.82700
C913        C  0.26861370  0.85307055  0.07895736    -0.12200
C914        C  0.25761642  0.87991026  0.08478258     0.04800
C915        C  0.24453143  0.88492518  0.11144672    -0.07500
C916        C  0.24276363  0.86346905  0.13182980    -0.08300
C917        C  0.25405080  0.83654967  0.12659813    -0.02800
C918        C  0.26717852  0.83135129  0.09964760     0.04000
N919        N  0.27889894  0.80431274  0.09279399     0.66500
H920        H  0.27842628  0.84902262  0.05835152     0.15400
H921        H  0.23290807  0.86827380  0.15225188     0.15100
N922        N  0.23245950  0.91182023  0.11799120     0.74200
O923        O  0.26385328  0.78243458  0.09524396    -0.39200
O924        O  0.30301944  0.80260122  0.08105242    -0.39200
O925        O  0.20967425  0.91950567  0.10606944    -0.39900
O926        O  0.24365503  0.92719168  0.13691873    -0.40000
C927        C  0.24211382  0.66967038  0.39730242    -0.12200
C928        C  0.24246435  0.66058426  0.36862679     0.04800
C929        C  0.24027361  0.63147141  0.36272012    -0.07500
C930        C  0.23866685  0.61224666  0.38542863    -0.08300
C931        C  0.23909400  0.62103001  0.41418559    -0.02800
C932        C  0.24103466  0.65017293  0.42009737     0.04000
N933        N  0.24155488  0.66037041  0.44892485     0.66500
H934        H  0.24343146  0.69196583  0.40202739     0.15400
H935        H  0.23719471  0.59001422  0.38042983     0.15100
N936        N  0.23859384  0.62104935  0.33383012     0.74200
O937        O  0.26425812  0.65888581  0.46323092    -0.39200
O938        O  0.22155383  0.67575337  0.45783417    -0.39200
O939        O  0.25098107  0.59841128  0.32712348    -0.39900
O940        O  0.22173488  0.63221977  0.31610802    -0.40000
C941        C  0.35742624  0.61843882  0.48587882    -0.12200
C942        C  0.34782543  0.61023136  0.51304010     0.04800
C943        C  0.35873196  0.62401339  0.03714314    -0.07500
C944        C  0.37897086  0.64557606  0.03376829    -0.08300
C945        C  0.38758288  0.65463288  0.50698249    -0.02800
C946        C  0.37700363  0.64036654  0.48252919     0.04000
N947        N  0.38582919  0.64776240  0.45409152     0.66500
H948        H  0.34964690  0.60762310  0.46699081     0.15400
H949        H  0.38582517  0.65714519  0.05252826     0.15100
N950        N  0.34671286  0.61884754  0.06499851     0.74200
O951        O  0.39547694  0.62908720  0.43748684    -0.39200
O952        O  0.38100212  0.67215560  0.44449268    -0.39200
O953        O  0.36203535  0.62074113  0.08711437    -0.39900
O954        O  0.32024362  0.61549276  0.06787513    -0.40000
C955        C  0.12731211  0.85474496  0.01512966    -0.12200
C956        C  0.10931464  0.84987007  0.99173761     0.04800
C957        C  0.11238393  0.86702702  0.46687231    -0.07500
C958        C  0.13102444  0.89005888  0.46731707    -0.08300
C959        C  0.14730406  0.89615684  0.99155421    -0.02800
C960        C  0.14631538  0.87749186  0.01530581     0.04000
N961        N  0.16365996  0.88180405  0.04019927     0.66500
H962        H  0.12604246  0.84117894  0.03379032     0.15400
H963        H  0.13079985  0.90466722  0.44945597     0.15100
N964        N  0.09285790  0.86430064  0.44357355     0.74200
O965        O  0.16275073  0.90496689  0.05341716    -0.39200
O966        O  0.17733782  0.86148499  0.05089331    -0.39200
O967        O  0.07211951  0.88101813  0.44150197    -0.39900
O968        O  0.09836270  0.84768319  0.42322413    -0.40000
C969        C  0.08784487  0.76661908  0.35639985    -0.12200
C970        C  0.08811577  0.74552072  0.37744827     0.04800
C971        C  0.10651039  0.72214246  0.37406008    -0.07500
C972        C  0.12460195  0.72089929  0.35019957    -0.08300
C973        C  0.12554780  0.74273659  0.32987007    -0.02800
C974        C  0.10597864  0.76526507  0.33250686     0.04000
N975        N  0.10518282  0.78767026  0.31199031     0.66500
H976        H  0.07360026  0.78441487  0.35864528     0.15400
H977        H  0.13954715  0.70360082  0.34867987     0.15100
N978        N  0.10906636  0.70079555  0.39579957     0.74200
O979        O  0.09485120  0.78333409  0.28742911    -0.39200
O980        O  0.11078004  0.81252346  0.31968507    -0.39200
O981        O  0.11259297  0.67539148  0.38869154    -0.39900
O982        O  0.11248952  0.70771080  0.42169751    -0.40000
C983        C  0.38155050  0.77798397  0.15220088    -0.12200
C984        C  0.37421680  0.75307240  0.16657045     0.04800
C985        C  0.38880807  0.72791619  0.15965731    -0.07500
C986        C  0.40907607  0.72793437  0.13756826    -0.08300
C987        C  0.41506633  0.75245248  0.12182072    -0.02800
C988        C  0.40175245  0.77800181  0.13004219     0.04000
N989        N  0.40681136  0.80377488  0.11489134     0.66500
H990        H  0.37051929  0.79737966  0.15730520     0.15400
H991        H  0.41915752  0.70824051  0.13172436     0.15100
N992        N  0.38169037  0.70167570  0.17308742     0.74200
O993        O  0.39860754  0.80633378  0.08926429    -0.39200
O994        O  0.41493948  0.82530804  0.12843283    -0.39200
O995        O  0.35689731  0.69179449  0.17070475    -0.39900
O996        O  0.40110771  0.68638579  0.18336823    -0.40000
C997        C  0.36872014  0.59438099  0.27008161    -0.12200
C998        C  0.39638169  0.60317531  0.26319604     0.04800
C999        C  0.40088291  0.63092546  0.25388972    -0.07500
C1000       C  0.37773397  0.64930049  0.25125136    -0.08300
C1001       C  0.34988456  0.64082041  0.25855189    -0.02800
C1002       C  0.34544972  0.61280070  0.26802879     0.04000
N1003       N  0.31762269  0.60238610  0.27492404     0.66500
H1004       H  0.36514434  0.57281021  0.27680207     0.15400
H1005       H  0.38182836  0.67067468  0.24422894     0.15100
N1006       N  0.42870798  0.64049038  0.24629817     0.74200
O1007       O  0.29752821  0.60519716  0.25723743    -0.39200
O1008       O  0.31413838  0.58672930  0.29653626    -0.39200
O1009       O  0.43445051  0.64627189  0.22053451    -0.39900
O1010       O  0.44667774  0.64573516  0.26563197    -0.40000
C1011       C  0.11654216  0.88762465  0.21493589    -0.12200
C1012       C  0.10309905  0.89372908  0.24106811     0.04800
C1013       C  0.11384441  0.88188489  0.26666279    -0.07500
C1014       C  0.13716517  0.86345970  0.26534683    -0.08300
C1015       C  0.15031084  0.85691786  0.23913052    -0.02800
C1016       C  0.14004851  0.86948712  0.21369816     0.04000
N1017       N  0.15251041  0.86330092  0.18636802     0.66500
H1018       H  0.10878757  0.89716252  0.19532086     0.15400
H1019       H  0.14484141  0.85378787  0.28491805     0.15100
N1020       N  0.10097266  0.88776378  0.29395460     0.74200
O1021       O  0.15316736  0.83827863  0.17729520    -0.39200
O1022       O  0.15992911  0.88311554  0.16993027    -0.39200
O1023       O  0.07427030  0.88772573  0.29662812    -0.39900
O1024       O  0.11626912  0.89061167  0.31598414    -0.40000
C1025       C  0.15317062  0.52646736  0.36999636    -0.12200
C1026       C  0.16766576  0.00012405  0.37631809     0.04800
C1027       C  0.15621156  0.97517052  0.36458397    -0.07500
C1028       C  0.13441673  0.97699701  0.34409203    -0.08300
C1029       C  0.12350567  0.50373871  0.33418330    -0.02800
C1030       C  0.13164283  0.52806882  0.34931350     0.04000
N1031       N  0.11804501  0.55450596  0.34411267     0.66500
H1032       H  0.15870094  0.54532351  0.38182415     0.15400
H1033       H  0.12548798  0.95777660  0.33540242     0.15100
N1034       N  0.16631666  0.94794648  0.37327350     0.74200
O1035       O  0.10308713  0.56573560  0.36343281    -0.39200
O1036       O  0.12307051  0.56783375  0.32124953    -0.39200
O1037       O  0.14901146  0.92798976  0.37718735    -0.39900
O1038       O  0.19266041  0.94314569  0.37480840    -0.40000
C1039       C  0.32997723  0.99390079  0.14770912    -0.12200
C1040       C  0.33116417  0.50320766  0.12754786     0.04800
C1041       C  0.33175801  0.48090757  0.14798077    -0.07500
C1042       C  0.35483865  0.47837102  0.16708751    -0.08300
C1043       C  0.37932402  0.99447022  0.16346368    -0.02800
C1044       C  0.35019423  0.99162229  0.16982274     0.04000
N1045       N  0.34097062  0.98549397  0.19832206     0.66500
H1046       H  0.30767495  0.99091150  0.15264787     0.15400
H1047       H  0.35529532  0.46115495  0.18234395     0.15100
N1048       N  0.30919782  0.46072399  0.14980032     0.74200
O1049       O  0.33060111  0.00476569  0.21370613    -0.39200
O1050       O  0.39175318  0.56758938  0.14791308    -0.39200
O1051       O  0.39436712  0.02863833  0.07975616    -0.39900
O1052       O  0.28428348  0.46888911  0.15542364    -0.40000
C1053       C  0.02180739  0.87940443  0.09831353    -0.12200
C1054       C  0.49736725  0.87214370  0.08351326     0.04800
C1055       C  0.47298282  0.88831750  0.09015108    -0.07500
C1056       C  0.47465897  0.90920146  0.11152200    -0.08300
C1057       C  0.99899820  0.91466438  0.12852132    -0.02800
C1058       C  0.02364426  0.90015424  0.11960519     0.04000
N1059       N  0.05063501  0.90563091  0.13248792     0.66500
H1060       H  0.04090199  0.86792635  0.09262398     0.15400
H1061       H  0.45567759  0.92095841  0.11695207     0.15100
N1062       N  0.44646208  0.88378793  0.07558052     0.74200
O1063       O  0.05910072  0.89037533  0.15293940    -0.39200
O1064       O  0.06792247  0.92198255  0.12019884    -0.39200
O1065       O  0.42322819  0.88685286  0.08877315    -0.39900
O1066       O  0.44606751  0.87943226  0.04888907    -0.40000
C1067       C  0.52651817  0.59015374  0.38981044    -0.12200
C1068       C  0.50065637  0.58350777  0.37623726     0.04800
C1069       C  0.97730154  0.59900850  0.38262305    -0.07500
C1070       C  0.97947044  0.62013092  0.40347978    -0.08300
C1071       C  0.00554110  0.62651581  0.41671812    -0.02800
C1072       C  0.52845753  0.61192009  0.41026132     0.04000
N1073       N  0.55544122  0.61766977  0.42349762     0.66500
H1074       H  0.54563946  0.57892197  0.38376762     0.15400
H1075       H  0.96078170  0.63260448  0.40830019     0.15100
N1076       N  0.95041573  0.59425428  0.36923086     0.74200
O1077       O  0.55677727  0.62327835  0.44991212    -0.39200
O1078       O  0.57822296  0.61385768  0.40971406    -0.39200
O1079       O  0.93479308  0.57433481  0.37774859    -0.39900
O1080       O  0.94073125  0.61202919  0.35164071    -0.40000
O1081       O  0.46512004  0.52328334  0.71574671    -0.88300
C1082       C  0.45839358  0.50835446  0.80243287     0.87700
Mg1083     Mg  0.47154657  0.98795923  0.68834106     1.58100
O1084       O  0.02430349  0.54071049  0.78048617    -0.88000
O1085       O  0.48350148  0.56319345  0.73006593    -0.75400
C1086       C  0.07708747  0.91333432  0.74192131     0.92800
O1087       O  0.43915373  0.96463400  0.74980539    -0.75200
O1088       O  0.05638698  0.91084102  0.72459773    -0.82700
Mg1089     Mg  0.43111700  0.51540568  0.74619312     1.58000
C1090       C  0.10048177  0.50586917  0.81305612     0.92700
O1091       O  0.41532807  0.56081246  0.74821633    -0.81000
H1092       H  0.04594131  0.57205591  0.76196330    -0.06300
C1093       C  0.02041954  0.95164285  0.79193272     0.87600
O1094       O  0.02084413  0.99729646  0.68536792    -0.75500
O1095       O  0.46078310  0.52296545  0.78064912    -0.88200
O1096       O  0.07802454  0.51877233  0.82101261    -0.81000
C1097       C  0.50128456  0.56521560  0.84938436     0.92800
C1098       C  0.41898397  0.58352256  0.76217911     0.92700
Mg1099     Mg  0.06611424  0.98076069  0.75776661     1.58000
O1100       O  0.07960645  0.93445545  0.75844780    -0.81000
O1101       O  0.06148087  0.53307682  0.75349381    -0.75200
O1102       O  0.48379441  0.56974218  0.82890757    -0.81000
O1103       O  0.39987352  0.50894701  0.70960319    -0.82800
O1104       O  0.01578243  0.92875523  0.67314652    -0.81100
C1105       C  0.04399622  0.54964381  0.76551991     0.87100
O1106       O  0.03772178  0.97457019  0.72228924    -0.88200
O1107       O  0.03124525  0.97483217  0.78694540    -0.88300
O1108       O  0.01274834  0.93521518  0.77188693    -0.75400
Mg1109     Mg  0.48298800  0.56303091  0.77942644     1.58000
O1110       O  0.02244708  0.54708792  0.84771410    -0.82800
H1111       H  0.47739922  0.55321369  0.68818316    -0.06500
O1112       O  0.47663558  0.95810551  0.72281651    -0.88000
H1113       H  0.45565450  0.92611669  0.74097888    -0.06300
H1114       H  0.06274920  0.99622711  0.69556015    -0.06500
C1115       C  0.45707989  0.94860405  0.73764023     0.87100
C1116       C  0.47509118  0.54676345  0.71035435     0.87700
C1117       C  0.04149884  0.98933836  0.70084122     0.87700
H1118       H  0.01693666  0.94529576  0.81410040    -0.06500
O1119       O  0.47991306  0.50123211  0.81716699    -0.75500
Mg1120     Mg  0.01494665  0.93531393  0.72235053     1.58000
H1121       H  0.43760026  0.50094210  0.80873168    -0.06500
C1122       C  0.40082911  0.99264853  0.68926172     0.92700
O1123       O  0.47938874  0.95351902  0.65531297    -0.82700
C1124       C  0.99964855  0.93371257  0.65173577     0.92800
O1125       O  0.44119252  0.58780726  0.77718563    -0.82700
Mg1126     Mg  0.02952632  0.51169262  0.81565960     1.58200
O1127       O  0.42382156  0.98021763  0.68225201    -0.81000
O1128       O  0.09616105  0.98620595  0.79476214    -0.82700
O1129       O  0.00577536  0.77310645  0.54879281    -0.88300
C1130       C  0.43485687  0.75490693  0.00049457     0.87700
Mg1131     Mg  0.03971160  0.79884302  0.53285154     1.58100
O1132       O  0.48237792  0.70099438  0.50757397    -0.88000
O1133       O  0.49629702  0.73283279  0.56600088    -0.75400
C1134       C  0.06856891  0.75103502  0.90423236     0.92800
O1135       O  0.47215714  0.81425794  0.50152837    -0.75200
O1136       O  0.06776261  0.77445848  0.91757374    -0.82700
Mg1137     Mg  0.46041194  0.79198569  0.54372198     1.58000
C1138       C  0.00696471  0.65455399  0.93407680     0.92700
O1139       O  0.44360643  0.77431771  0.58650578    -0.81000
H1140       H  0.00789937  0.67247774  0.53264139    -0.06300
C1141       C  0.49031685  0.74598884  0.93273011     0.87600
O1142       O  0.06604896  0.76017047  0.52017554    -0.75500
O1143       O  0.44892632  0.75397535  0.52120911    -0.88200
O1144       O  0.48514543  0.66106853  0.94826899    -0.81000
C1145       C  0.41414819  0.67301385  0.00470779     0.92800
C1146       C  0.43060255  0.75252233  0.59561157     0.92700
Mg1147     Mg  0.03963293  0.71127301  0.95590881     1.58000
O1148       O  0.05556699  0.72925093  0.91330288    -0.81000
O1149       O  0.02845560  0.68883865  0.99809052    -0.75200
O1150       O  0.41708484  0.69125666  0.52607518    -0.81000
O1151       O  0.47256125  0.83211962  0.56764549    -0.82800
O1152       O  0.08032476  0.81304391  0.97311793    -0.81100
C1153       C  0.00730749  0.68556989  0.51361919     0.87100
O1154       O  0.05054540  0.74937606  0.97818317    -0.88200
O1155       O  0.49741475  0.72735641  0.94973767    -0.88300
O1156       O  0.00238363  0.76987227  0.93376618    -0.75400
Mg1157     Mg  0.45696096  0.71470089  0.54343973     1.58000
O1158       O  0.42929980  0.67335558  0.98221426    -0.82800
H1159       H  0.03029866  0.75774721  0.58011384    -0.06500
O1160       O  0.01632816  0.80135777  0.99288293    -0.88000
H1161       H  0.49472100  0.82801313  0.96692316    -0.06300
H1162       H  0.08412938  0.72827638  0.49775949    -0.06500
C1163       C  0.49552116  0.81463138  0.98571951     0.87100
C1164       C  0.01242653  0.75440321  0.56591486     0.87700
C1165       C  0.06834919  0.74482133  0.49805708     0.87700
H1166       H  0.47235605  0.74243226  0.91872081    -0.06500
O1167       O  0.43724246  0.73957900  0.97835202    -0.75500
Mg1168     Mg  0.04137505  0.78857090  0.95621916     1.58000
H1169       H  0.41903499  0.77139646  0.00079391    -0.06500
C1170       C  0.49429654  0.84804381  0.56613019     0.92700
O1171       O  0.07533817  0.82597010  0.51618067    -0.83100
C1172       C  0.08912771  0.82670408  0.49274684     0.92800
O1173       O  0.43090907  0.72938979  0.58175976    -0.82700
Mg1174     Mg  0.46406896  0.70112094  0.96577308     1.58200
O1175       O  0.01910650  0.83909671  0.55121176    -0.81000
O1176       O  0.02840102  0.67080910  0.93217994    -0.82700
O1177       O  0.20998306  0.77322793  0.71842261    -0.88300
C1178       C  0.29143462  0.79751423  0.73409249     0.87700
Mg1179     Mg  0.18017953  0.76665562  0.75287466     1.58100
O1180       O  0.28274312  0.72672064  0.71356869    -0.88000
O1181       O  0.22849402  0.75156717  0.68154910    -0.75400
C1182       C  0.24377155  0.68265732  0.84574866     0.92800
O1183       O  0.23318803  0.81220355  0.76943251    -0.75200
O1184       O  0.22602888  0.70286777  0.84532348    -0.82700
Mg1185     Mg  0.23285844  0.81245040  0.71999093     1.58000
C1186       C  0.32654745  0.66432761  0.75902459     0.92700
O1187       O  0.23387929  0.81930593  0.67103019    -0.81000
H1188       H  0.27000879  0.69777903  0.68521629    -0.06300
C1189       C  0.28927196  0.73927802  0.80057363     0.87600
O1190       O  0.18697489  0.71871316  0.75108265    -0.75500
O1191       O  0.27183404  0.78902091  0.71878034    -0.88200
O1192       O  0.33063947  0.68690574  0.74489481    -0.81000
C1193       C  0.34731613  0.75454594  0.68606728     0.92800
C1194       C  0.25156300  0.81563625  0.65058417     0.92700
Mg1195     Mg  0.26301733  0.68615616  0.77615677     1.58000
O1196       O  0.26113713  0.67824012  0.82514725    -0.81000
O1197       O  0.26311569  0.68702054  0.72681091    -0.75200
O1198       O  0.32493777  0.76755666  0.67820647    -0.81000
O1199       O  0.19142949  0.83741931  0.72124951    -0.82800
O1200       O  0.17169982  0.73234611  0.81869208    -0.81100
C1201       C  0.27220582  0.70365862  0.70755093     0.87100
O1202       O  0.22419586  0.71000878  0.77775373    -0.88200
O1203       O  0.28625280  0.72539208  0.77843820    -0.88300
O1204       O  0.26807425  0.74695953  0.81545856    -0.75400
Mg1205     Mg  0.27662172  0.76046992  0.68322876     1.58000
O1206       O  0.34799481  0.73955452  0.70863451    -0.82800
H1207       H  0.18618171  0.75213603  0.69017766    -0.06500
O1208       O  0.21428663  0.77229169  0.78306415    -0.88000
H1209       H  0.22709538  0.80146248  0.81123578    -0.06300
H1210       H  0.20191962  0.67934261  0.75889700    -0.06500
C1211       C  0.22467894  0.79546156  0.78887578     0.87100
C1212       C  0.20718311  0.75896523  0.69648097     0.87700
C1213       C  0.20425537  0.70166402  0.76277333     0.87700
H1214       H  0.31038025  0.74563340  0.80701999    -0.06500
O1215       O  0.30863819  0.78060294  0.74605851    -0.75500
Mg1216     Mg  0.22000544  0.73867623  0.81349189     1.58000
H1217       H  0.29348956  0.81984547  0.73806713    -0.06500
C1218       C  0.17036796  0.83460497  0.73814979     0.92700
O1219       O  0.14853931  0.76068248  0.78888812    -0.82700
C1220       C  0.14928516  0.74561188  0.81135665     0.92800
O1221       O  0.27028426  0.79632816  0.65147713    -0.82700
Mg1222     Mg  0.31630016  0.73283071  0.74445920     1.58200
O1223       O  0.16731793  0.81298733  0.75393827    -0.81000
O1224       O  0.30432546  0.66068035  0.77423758    -0.82700
O1225       O  0.29133163  0.98000512  0.53138671    -0.88300
C1226       C  0.20502476  0.97414461  0.53981652     0.87700
Mg1227     Mg  0.30930313  0.52365646  0.53291752     1.58100
O1228       O  0.22923155  0.96071511  0.96909068    -0.88000
O1229       O  0.28665122  0.94235000  0.50491749    -0.75400
C1230       C  0.24047849  0.59904680  0.93663442     0.92800
O1231       O  0.24605728  0.52223538  0.56798944    -0.75200
O1232       O  0.25467884  0.60200406  0.95960148    -0.82700
Mg1233     Mg  0.26137292  0.97446981  0.56608889     1.58000
C1234       C  0.18441173  0.00014315  0.90163708     0.92700
O1235       O  0.26992297  0.92734914  0.57308957    -0.81000
H1236       H  0.25173880  0.93835066  0.94075885    -0.06300
C1237       C  0.19862092  0.54100576  0.98412399     0.87600
O1238       O  0.31240589  0.52230522  0.98337750    -0.75500
O1239       O  0.22925610  0.96561761  0.53462997    -0.88200
O1240       O  0.18116456  0.98231838  0.92188707    -0.81000
C1241       C  0.17095197  0.91758944  0.48869827     0.92800
C1242       C  0.25901581  0.90404234  0.56525836     0.92700
Mg1243     Mg  0.23968635  0.52912520  0.93594404     1.58000
O1244       O  0.22853457  0.57578417  0.93043024    -0.81000
O1245       O  0.25023582  0.98026620  0.93225219    -0.75200
O1246       O  0.19378596  0.91537690  0.50303905    -0.81000
O1247       O  0.29601063  0.98300656  0.59873886    -0.82800
O1248       O  0.30689526  0.58769303  0.99873464    -0.81100
C1249       C  0.24379097  0.95876281  0.94713012     0.87100
O1250       O  0.27151516  0.53780800  0.96770714    -0.88200
O1251       O  0.20957389  0.52195247  0.96984031    -0.88300
O1252       O  0.21355310  0.55996832  0.99608695    -0.75400
Mg1253     Mg  0.23900461  0.93201086  0.50478230     1.58000
O1254       O  0.16426737  0.94033475  0.97355384    -0.82800
H1255       H  0.32473716  0.96003923  0.51444620    -0.06500
O1256       O  0.26769750  0.54288341  0.53223464    -0.88000
H1257       H  0.24259556  0.56401050  0.55930569    -0.06300
H1258       H  0.30331591  0.52769427  0.94113691    -0.06500
C1259       C  0.25195361  0.54406280  0.55338598     0.87100
C1260       C  0.30193896  0.96073634  0.51720406     0.87700
C1261       C  0.29594590  0.52947709  0.96307855     0.87700
H1262       H  0.17581828  0.54123249  0.98697804    -0.06500
O1263       O  0.18823916  0.98165459  0.51996320    -0.75500
Mg1264     Mg  0.26126203  0.57132675  0.99691787     1.58000
H1265       H  0.19814914  0.97594220  0.56200376    -0.06500
C1266       C  0.31146014  0.50497630  0.60216841     0.92700
O1267       O  0.33088703  0.56677507  0.53216359    -0.82700
C1268       C  0.32866951  0.58578368  0.01477082     0.92800
O1269       O  0.24622563  0.90128022  0.54145140    -0.82700
Mg1270     Mg  0.18851259  0.98207606  0.97093054     1.58200
O1271       O  0.31391434  0.52347541  0.58238491    -0.81000
O1272       O  0.20559265  0.52076185  0.90316121    -0.82700
C1273       C  0.26600435  0.85327299  0.57921729    -0.12200
C1274       C  0.25794937  0.88083941  0.58639898     0.04800
C1275       C  0.24662326  0.88613041  0.61383441    -0.07500
C1276       C  0.24343958  0.86420850  0.63347174    -0.08300
C1277       C  0.25191709  0.83661871  0.62684963    -0.02800
C1278       C  0.26344452  0.83114220  0.59929984     0.04000
N1279       N  0.27217054  0.80335278  0.59122509     0.66500
H1280       H  0.27427786  0.84894693  0.55799312     0.15400
H1281       H  0.23499448  0.86914627  0.65449873     0.15100
N1282       N  0.23750808  0.91374393  0.62186994     0.74200
O1283       O  0.25514385  0.78294889  0.59366233    -0.39200
O1284       O  0.29587354  0.79959118  0.57912918    -0.39200
O1285       O  0.21237746  0.92149597  0.61671693    -0.39900
O1286       O  0.25350373  0.92913390  0.63686976    -0.40000
C1287       C  0.24038961  0.67055754  0.89818225    -0.12200
C1288       C  0.24251533  0.66181844  0.86944110     0.04800
C1289       C  0.24254660  0.63267531  0.86325025    -0.07500
C1290       C  0.24146872  0.61315741  0.88570318    -0.08300
C1291       C  0.24012217  0.62164693  0.91450379    -0.02800
C1292       C  0.23969988  0.65075436  0.92074736     0.04000
N1293       N  0.23793511  0.66052640  0.94966508     0.66500
H1294       H  0.23990278  0.69283170  0.90315972     0.15400
H1295       H  0.24171222  0.59092662  0.88047499     0.15100
N1296       N  0.24248315  0.62244212  0.83425412     0.74200
O1297       O  0.25998379  0.66103408  0.96503517    -0.39200
O1298       O  0.21584989  0.67314229  0.95806117    -0.39200
O1299       O  0.25722590  0.60121808  0.82760442    -0.39900
O1300       O  0.22487914  0.63205646  0.81632540    -0.40000
C1301       C  0.36110765  0.61512943  0.98594697    -0.12200
C1302       C  0.35001482  0.60842397  0.01293107     0.04800
C1303       C  0.35752238  0.62483077  0.53752891    -0.07500
C1304       C  0.37742218  0.64670437  0.53422119    -0.08300
C1305       C  0.39048377  0.65219885  0.00669912    -0.02800
C1306       C  0.38110872  0.63666168  0.98251172     0.04000
N1307       N  0.39165160  0.64224419  0.95425575     0.66500
H1308       H  0.35418044  0.60342775  0.96726795     0.15400
H1309       H  0.38520205  0.65739000  0.55315875     0.15100
N1310       N  0.34683383  0.61835577  0.56564903     0.74200
O1311       O  0.40321421  0.62278199  0.93999649    -0.39200
O1312       O  0.38614814  0.66541475  0.94220302    -0.39200
O1313       O  0.36315176  0.61940882  0.58708914    -0.39900
O1314       O  0.32051791  0.61488884  0.56961985    -0.40000
C1315       C  0.13120990  0.85146692  0.51256471    -0.12200
C1316       C  0.11206891  0.84776445  0.48991697     0.04800
C1317       C  0.11060162  0.86816482  0.96787083    -0.07500
C1318       C  0.12921082  0.89122135  0.96816283    -0.08300
C1319       C  0.15010153  0.89405039  0.49012655    -0.02800
C1320       C  0.15030312  0.87411594  0.51283608     0.04000
N1321       N  0.16910373  0.87689988  0.53679758     0.66500
H1322       H  0.13084428  0.83702598  0.53057472     0.15400
H1323       H  0.12997904  0.90494947  0.94960230     0.15100
N1324       N  0.09229747  0.86436781  0.94369198     0.74200
O1325       O  0.16630403  0.89729571  0.55389025    -0.39200
O1326       O  0.18635872  0.85738702  0.54268625    -0.39200
O1327       O  0.07437596  0.88314674  0.93740296    -0.39900
O1328       O  0.09733139  0.84490977  0.92599789    -0.40000
C1329       C  0.08832696  0.77026570  0.85855184    -0.12200
C1330       C  0.08671120  0.74813532  0.87841702     0.04800
C1331       C  0.10347408  0.72370208  0.87394857    -0.07500
C1332       C  0.12181662  0.72239889  0.85028989    -0.08300
C1333       C  0.12450769  0.74505858  0.83116088    -0.02800
C1334       C  0.10672928  0.76884034  0.83489427     0.04000
N1335       N  0.10842573  0.79253325  0.81602478     0.66500
H1336       H  0.07550590  0.78898005  0.86163132     0.15400
H1337       H  0.13550626  0.70419341  0.84793117     0.15100
N1338       N  0.10413334  0.70107435  0.89442805     0.74200
O1339       O  0.09542191  0.79205726  0.79238230    -0.39200
O1340       O  0.11939463  0.81523371  0.82465695    -0.39200
O1341       O  0.10517623  0.67589108  0.88585476    -0.39900
O1342       O  0.10855657  0.70623056  0.92059510    -0.40000
C1343       C  0.38000796  0.78004666  0.65290638    -0.12200
C1344       C  0.37233837  0.75499574  0.66682995     0.04800
C1345       C  0.38663751  0.72980467  0.65962079    -0.07500
C1346       C  0.40682154  0.72980231  0.63750380    -0.08300
C1347       C  0.41321159  0.75449916  0.62220492    -0.02800
C1348       C  0.40046217  0.78011553  0.63100610     0.04000
N1349       N  0.40654883  0.80609385  0.61674336     0.66500
H1350       H  0.36930291  0.79953240  0.65834684     0.15400
H1351       H  0.41650555  0.71001406  0.63132268     0.15100
N1352       N  0.37906580  0.70355238  0.67268351     0.74200
O1353       O  0.39380027  0.81224279  0.59378659    -0.39200
O1354       O  0.42162005  0.82443384  0.62904004    -0.39200
O1355       O  0.35501612  0.69278555  0.66785287    -0.39900
O1356       O  0.39755900  0.68950275  0.68606856    -0.40000
C1357       C  0.36740080  0.59494323  0.76305079    -0.12200
C1358       C  0.39567051  0.60452262  0.76171068     0.04800
C1359       C  0.40082467  0.63357197  0.75911095    -0.07500
C1360       C  0.37791756  0.65234624  0.75732177    -0.08300
C1361       C  0.34955829  0.64288843  0.75888562    -0.02800
C1362       C  0.34430081  0.61369995  0.76180183     0.04000
N1363       N  0.31589438  0.60261850  0.76259977     0.66500
H1364       H  0.36323673  0.57257001  0.76489331     0.15400
H1365       H  0.38242812  0.67464854  0.75538269     0.15100
N1366       N  0.42916360  0.64427669  0.75750409     0.74200
O1367       O  0.29762135  0.61086346  0.74465477    -0.39200
O1368       O  0.31005795  0.58203141  0.77871002    -0.39200
O1369       O  0.43919035  0.65193774  0.73364565    -0.39900
O1370       O  0.44246481  0.64998178  0.78024478    -0.40000
C1371       C  0.11196385  0.88468073  0.71516235    -0.12200
C1372       C  0.10008554  0.89220882  0.74168890     0.04800
C1373       C  0.11252048  0.88194391  0.76725227    -0.07500
C1374       C  0.13606473  0.86384379  0.76553386    -0.08300
C1375       C  0.14769767  0.85608231  0.73897181    -0.02800
C1376       C  0.13564567  0.86689084  0.71358991     0.04000
N1377       N  0.14646246  0.85909256  0.68604461     0.66500
H1378       H  0.10297630  0.89295346  0.69549208     0.15400
H1379       H  0.14511324  0.85536370  0.78507548     0.15100
N1380       N  0.10117515  0.88904178  0.79494476     0.74200
O1381       O  0.14296042  0.83433966  0.67689146    -0.39200
O1382       O  0.15676322  0.87762523  0.66964655    -0.39200
O1383       O  0.07466002  0.88923268  0.79910397    -0.39900
O1384       O  0.11764552  0.89242398  0.81601657    -0.40000
C1385       C  0.15511193  0.52813106  0.86855413    -0.12200
C1386       C  0.16432114  0.99980159  0.87717148     0.04800
C1387       C  0.15213091  0.97459483  0.86680070    -0.07500
C1388       C  0.13041599  0.97592119  0.84623324    -0.08300
C1389       C  0.12560966  0.50589282  0.83227686    -0.02800
C1390       C  0.13379171  0.53005933  0.84767047     0.04000
N1391       N  0.12029722  0.55660012  0.84267993     0.66500
H1392       H  0.16068917  0.54684379  0.88059123     0.15400
H1393       H  0.12093000  0.95651667  0.83862432     0.15100
N1394       N  0.16129639  0.94759954  0.87707204     0.74200
O1395       O  0.10615900  0.56821087  0.86239431    -0.39200
O1396       O  0.12400175  0.56930714  0.81920201    -0.39200
O1397       O  0.14321514  0.92920025  0.88410868    -0.39900
O1398       O  0.18737088  0.94134925  0.87716538    -0.40000
C1399       C  0.32834186  0.99784732  0.65190543    -0.12200
C1400       C  0.33232061  0.50527996  0.62624487     0.04800
C1401       C  0.32792874  0.49094345  0.65264694    -0.07500
C1402       C  0.35083698  0.48767920  0.67195854    -0.08300
C1403       C  0.37779557  0.99398134  0.66744121    -0.02800
C1404       C  0.34854324  0.99562578  0.67413638     0.04000
N1405       N  0.33900290  0.99454040  0.70320322     0.66500
H1406       H  0.30593040  0.99858830  0.65720302     0.15400
H1407       H  0.34744293  0.47715136  0.69229036     0.15100
N1408       N  0.30048497  0.48007678  0.66041941     0.74200
O1409       O  0.33845963  0.01677046  0.71798715    -0.39200
O1410       O  0.41193839  0.55053675  0.62897261    -0.39200
O1411       O  0.39736955  0.01282245  0.58031852    -0.39900
O1412       O  0.27843943  0.49468744  0.65633595    -0.40000
C1413       C  0.02372065  0.87695928  0.59919373    -0.12200
C1414       C  0.49568363  0.87377736  0.58434064     0.04800
C1415       C  0.47133065  0.88980220  0.59149151    -0.07500
C1416       C  0.47324807  0.91063721  0.61290403    -0.08300
C1417       C  0.00098439  0.91466615  0.62628936    -0.02800
C1418       C  0.02502690  0.89774783  0.62046584     0.04000
N1419       N  0.05065256  0.90060804  0.63666682     0.66500
H1420       H  0.04209435  0.86357301  0.59590282     0.15400
H1421       H  0.45425171  0.92215516  0.61879584     0.15100
N1422       N  0.44457229  0.88515046  0.57742844     0.74200
O1423       O  0.05823213  0.88122901  0.65354475    -0.39200
O1424       O  0.06718038  0.92099666  0.63186109    -0.39200
O1425       O  0.42159591  0.88757860  0.59120592    -0.39900
O1426       O  0.44365792  0.88141851  0.55065265    -0.40000
C1427       C  0.52722357  0.59042410  0.88827004    -0.12200
C1428       C  0.50120891  0.58426014  0.87473520     0.04800
C1429       C  0.97836291  0.60007572  0.88276106    -0.07500
C1430       C  0.98001157  0.62125093  0.90357394    -0.08300
C1431       C  0.00595412  0.62835038  0.91666722    -0.02800
C1432       C  0.52954118  0.61200664  0.90881832     0.04000
N1433       N  0.55662527  0.61734569  0.92204826     0.66500
H1434       H  0.54617776  0.57898842  0.88209050     0.15400
H1435       H  0.96097372  0.63314654  0.90852864     0.15100
N1436       N  0.95152358  0.59437373  0.86963949     0.74200
O1437       O  0.55805432  0.62323722  0.94839367    -0.39200
O1438       O  0.57934789  0.61306750  0.90831297    -0.39200
O1439       O  0.93769026  0.57270380  0.87676207    -0.39900
O1440       O  0.94023621  0.61246971  0.85341543    -0.40000
O1441       O  0.96504241  0.02127884  0.21862333    -0.88300
C1442       C  0.95821634  0.00680642  0.30515405     0.87700
Mg1443     Mg  0.97373502  0.49168953  0.18311027     1.58100
O1444       O  0.52103064  0.03733750  0.28148262    -0.88000
O1445       O  0.98304485  0.06148146  0.23238483    -0.75400
C1446       C  0.57963993  0.41577880  0.24009314     0.92800
O1447       O  0.94069879  0.46753011  0.24461284    -0.75200
O1448       O  0.55860582  0.41331117  0.22314622    -0.82700
Mg1449     Mg  0.93084464  0.01353424  0.24875204     1.58000
C1450       C  0.59589806  0.00226163  0.31626938     0.92700
O1451       O  0.91507324  0.05894637  0.25063236    -0.81000
H1452       H  0.54337250  0.06813796  0.26280905    -0.06300
C1453       C  0.52343831  0.45275474  0.29170230     0.87600
O1454       O  0.52034879  0.49899307  0.18541955    -0.75500
O1455       O  0.96046806  0.02132977  0.28329240    -0.88200
O1456       O  0.57359430  0.01584697  0.32334448    -0.81000
C1457       C  0.00231053  0.06405174  0.35137886     0.92800
C1458       C  0.91864645  0.08181464  0.26435875     0.92700
Mg1459     Mg  0.56820073  0.48298448  0.25711868     1.58000
O1460       O  0.58233548  0.43678376  0.25676645    -0.81000
O1461       O  0.55895127  0.02888309  0.25567123    -0.75200
O1462       O  0.98435263  0.06853071  0.33127465    -0.81000
O1463       O  0.89960012  0.00711453  0.21182483    -0.82800
O1464       O  0.51649101  0.43122412  0.17252678    -0.81100
C1465       C  0.54118118  0.04580450  0.26681142     0.87100
O1466       O  0.53883524  0.47683483  0.22199509    -0.88200
O1467       O  0.53400909  0.47611136  0.28693327    -0.88300
O1468       O  0.51544018  0.43662393  0.27152421    -0.75400
Mg1469     Mg  0.98287828  0.06136231  0.28168554     1.58000
O1470       O  0.51805445  0.04478035  0.34821489    -0.82800
H1471       H  0.97663989  0.05111081  0.19065455    -0.06500
O1472       O  0.97788231  0.46115238  0.21726371    -0.88000
H1473       H  0.95652722  0.42902423  0.23467223    -0.06300
H1474       H  0.56251633  0.49921251  0.19462900    -0.06500
C1475       C  0.95823549  0.45156555  0.23186790     0.87100
C1476       C  0.97464493  0.04481704  0.21290261     0.87700
C1477       C  0.54161262  0.49174350  0.20047417     0.87700
H1478       H  0.52043959  0.44600583  0.31380223    -0.06500
O1479       O  0.97984062  0.99963771  0.31971528    -0.75500
Mg1480     Mg  0.51657695  0.43724718  0.22194441     1.58000
H1481       H  0.93743823  0.99951721  0.31168598    -0.06500
C1482       C  0.90225024  0.49736209  0.18439731     0.92700
O1483       O  0.98156934  0.45697697  0.15012360    -0.82700
C1484       C  0.49920217  0.43545180  0.15185491     0.92800
O1485       O  0.94084250  0.08623621  0.27941828    -0.82700
Mg1486     Mg  0.52520307  0.00868542  0.31703454     1.58200
O1487       O  0.92544529  0.48673818  0.17518875    -0.81000
O1488       O  0.59904623  0.48855467  0.29399535    -0.82700
O1489       O  0.50648369  0.27296146  0.05145071    -0.88300
C1490       C  0.93723208  0.25301755  0.50319834     0.87700
Mg1491     Mg  0.53985787  0.29920408  0.03531670     1.58100
O1492       O  0.98370395  0.20101784  0.00711566    -0.88000
O1493       O  0.99825529  0.23325352  0.06525859    -0.75400
C1494       C  0.56728504  0.25097894  0.40111843     0.92800
O1495       O  0.97267756  0.31385079  0.00043802    -0.75200
O1496       O  0.56711191  0.27418736  0.41493123    -0.82700
Mg1497     Mg  0.96154626  0.29210601  0.04310794     1.58000
C1498       C  0.50557295  0.15452857  0.43239943     0.92700
O1499       O  0.94516965  0.27472911  0.08641564    -0.81000
H1500       H  0.51057424  0.17192824  0.03586816    -0.06300
C1501       C  0.99327863  0.24434557  0.43629613     0.87600
O1502       O  0.56686889  0.26083228  0.02296470    -0.75500
O1503       O  0.94987341  0.25375216  0.02123291    -0.88200
O1504       O  0.98833183  0.15945599  0.45108680    -0.81000
C1505       C  0.91668803  0.17110896  0.50650456     0.92800
C1506       C  0.93265226  0.25276260  0.09588006     0.92700
Mg1507     Mg  0.53940358  0.21102305  0.45364081     1.58000
O1508       O  0.55438037  0.22924570  0.41050497    -0.81000
O1509       O  0.52941531  0.18834586  0.49605418    -0.75200
O1510       O  0.91858797  0.19073987  0.02720132    -0.81000
O1511       O  0.97403111  0.33277395  0.06619189    -0.82800
O1512       O  0.58120747  0.31270175  0.47051350    -0.81100
C1513       C  0.50973206  0.18494598  0.01676475     0.87100
O1514       O  0.55129552  0.24894716  0.47598369    -0.88200
O1515       O  0.00042744  0.22572412  0.45328176    -0.88300
O1516       O  0.50201101  0.26981394  0.43307136    -0.75400
Mg1517     Mg  0.95872074  0.21470968  0.04350269     1.58000
O1518       O  0.93201703  0.17172280  0.48414552    -0.82800
H1519       H  0.53124656  0.25818774  0.08287662    -0.06500
O1520       O  0.51758938  0.30110503  0.49190443    -0.88000
H1521       H  0.99692251  0.32671610  0.47087180    -0.06300
H1522       H  0.58544552  0.22894279  0.00094765    -0.06500
C1523       C  0.99736498  0.31323715  0.48960649     0.87100
C1524       C  0.51344981  0.25445679  0.06867930     0.87700
C1525       C  0.56941771  0.24525070  0.00102846     0.87700
H1526       H  0.97556053  0.24060457  0.42201889    -0.06500
O1527       O  0.93995717  0.23776847  0.48104380    -0.75500
Mg1528     Mg  0.54173819  0.28830645  0.45448789     1.58000
H1529       H  0.92134129  0.26945248  0.50334081    -0.06500
C1530       C  0.99570508  0.34873940  0.06395602     0.92700
O1531       O  0.57490687  0.32687531  0.01848098    -0.83100
C1532       C  0.58864087  0.32760818  0.99502929     0.92800
O1533       O  0.93326777  0.22950075  0.08224601    -0.82700
Mg1534     Mg  0.96701797  0.19943356  0.46863579     1.58200
O1535       O  0.51840609  0.33933452  0.05306460    -0.81000
O1536       O  0.52695965  0.17080019  0.42990628    -0.82700
O1537       O  0.71022077  0.27296339  0.21569025    -0.88300
C1538       C  0.79183742  0.29612324  0.23321485     0.87700
Mg1539     Mg  0.67964794  0.26638729  0.24945072     1.58100
O1540       O  0.78313666  0.22555512  0.21162690    -0.88000
O1541       O  0.72951824  0.25149647  0.17906793    -0.75400
C1542       C  0.74132400  0.18140198  0.34323356     0.92800
O1543       O  0.73310470  0.31085981  0.26775778    -0.75200
O1544       O  0.72282547  0.20081343  0.34138875    -0.82700
Mg1545     Mg  0.73369564  0.31181523  0.21834650     1.58000
C1546       C  0.82603771  0.16259229  0.25788923     0.92700
O1547       O  0.73536509  0.31909283  0.16953116    -0.81000
H1548       H  0.77059153  0.19683762  0.18293608    -0.06300
C1549       C  0.78750036  0.23751109  0.29888150     0.87600
O1550       O  0.68619021  0.21828439  0.24725503    -0.75500
O1551       O  0.77239005  0.28788381  0.21757598    -0.88200
O1552       O  0.83045372  0.18514440  0.24378480    -0.81000
C1553       C  0.84847246  0.25354552  0.18563329     0.92800
C1554       C  0.75334031  0.31586713  0.14927814     0.92700
Mg1555     Mg  0.76192718  0.18455396  0.27381879     1.58000
O1556       O  0.75944953  0.17682281  0.32330733    -0.81000
O1557       O  0.76303190  0.18585655  0.22437465    -0.75200
O1558       O  0.82621441  0.26665494  0.17755799    -0.81000
O1559       O  0.69279982  0.33766004  0.21929216    -0.82800
O1560       O  0.66890657  0.23065768  0.31444258    -0.81100
C1561       C  0.77249661  0.20258657  0.20533875     0.87100
O1562       O  0.72284870  0.20858017  0.27443437    -0.88200
O1563       O  0.78522413  0.22368238  0.27660975    -0.88300
O1564       O  0.76583160  0.24495446  0.31322993    -0.75400
Mg1565     Mg  0.77771791  0.25998655  0.18166289     1.58000
O1566       O  0.84872361  0.23826658  0.20804245    -0.82800
H1567       H  0.68702287  0.25215626  0.18672556    -0.06500
O1568       O  0.71310233  0.27111870  0.28027933    -0.88000
H1569       H  0.72584589  0.29957850  0.30921989    -0.06300
H1570       H  0.70070060  0.17859392  0.25430608    -0.06500
C1571       C  0.72380515  0.29399131  0.28671352     0.87100
C1572       C  0.70789513  0.25886326  0.19357397     0.87700
C1573       C  0.70316959  0.20079465  0.25878329     0.87700
H1574       H  0.80837942  0.24394908  0.30598706    -0.06500
O1575       O  0.80878493  0.27899853  0.24522143    -0.75500
Mg1576     Mg  0.71767957  0.23689705  0.31016840     1.58000
H1577       H  0.79397645  0.31840403  0.23742958    -0.06500
C1578       C  0.67127328  0.33496071  0.23559655     0.92700
O1579       O  0.64751167  0.26077170  0.28508458    -0.82700
C1580       C  0.64732625  0.24533694  0.30730075     0.92800
O1581       O  0.77222816  0.29670820  0.15039380    -0.82700
Mg1582     Mg  0.81616704  0.23121717  0.24328646     1.58200
O1583       O  0.66728045  0.31298606  0.25066662    -0.81000
O1584       O  0.80341218  0.15896383  0.27253731    -0.82700
O1585       O  0.78857683  0.48326707  0.03262574    -0.88300
C1586       C  0.70245328  0.47548807  0.03943004     0.87700
Mg1587     Mg  0.81295952  0.01977788  0.02995200     1.58100
O1588       O  0.72942766  0.46289274  0.47155907    -0.88000
O1589       O  0.78541746  0.44583968  0.00561525    -0.75400
C1590       C  0.74404014  0.09691530  0.43259316     0.92800
O1591       O  0.75020938  0.02071405  0.06738787    -0.75200
O1592       O  0.75909562  0.09878509  0.45511870    -0.82700
Mg1593     Mg  0.75845312  0.47666355  0.06677385     1.58000
C1594       C  0.68624817  0.50195941  0.40251647     0.92700
O1595       O  0.76749640  0.42953437  0.07406182    -0.81000
H1596       H  0.75362240  0.44129113  0.44403766    -0.06300
C1597       C  0.70172365  0.04030286  0.48151373     0.87600
O1598       O  0.81448566  0.01739722  0.47748226    -0.75500
O1599       O  0.72690639  0.46723045  0.03481213    -0.88200
O1600       O  0.68225890  0.48377470  0.42233160    -0.81000
C1601       C  0.67044811  0.41834981  0.98802203     0.92800
C1602       C  0.75792078  0.40597106  0.06528997     0.92700
Mg1603     Mg  0.74065332  0.02679140  0.43212823     1.58000
O1604       O  0.73113223  0.07422485  0.42603208    -0.81000
O1605       O  0.75163200  0.48326902  0.43603011    -0.75200
O1606       O  0.69340618  0.41652978  0.00220380    -0.81000
O1607       O  0.79310985  0.48562598  0.09942220    -0.82800
O1608       O  0.81164602  0.08404528  0.49319065    -0.81100
C1609       C  0.74495291  0.46146258  0.45026435     0.87100
O1610       O  0.77403548  0.03472803  0.46258218    -0.88200
O1611       O  0.71170360  0.02072811  0.46729077    -0.88300
O1612       O  0.71759166  0.05889052  0.49277503    -0.75400
Mg1613     Mg  0.73810141  0.43417239  0.00471558     1.58000
O1614       O  0.66503067  0.44000140  0.47279535    -0.82800
H1615       H  0.82281795  0.46451594  0.01593429    -0.06500
O1616       O  0.77182472  0.04063213  0.03120281    -0.88000
H1617       H  0.74847292  0.06264080  0.05909889    -0.06300
H1618       H  0.80464715  0.02273754  0.43540433    -0.06500
C1619       C  0.75679416  0.04234736  0.05282989     0.87100
C1620       C  0.79996613  0.46450342  0.01836589     0.87700
C1621       C  0.79791280  0.02515342  0.45749393     0.87700
H1622       H  0.67901440  0.04133841  0.48490763    -0.06500
O1623       O  0.68597049  0.48273032  0.01919858    -0.75500
Mg1624     Mg  0.76564335  0.06843098  0.49218576     1.58000
H1625       H  0.69509969  0.47729255  0.06144910    -0.06500
C1626       C  0.81638329  0.00089070  0.09933325     0.92700
O1627       O  0.83643759  0.06183754  0.02786409    -0.82700
C1628       C  0.83336389  0.08154305  0.50923980     0.92800
O1629       O  0.74583453  0.40326193  0.04110957    -0.82700
Mg1630     Mg  0.68775034  0.48264662  0.47186848     1.58200
O1631       O  0.81993979  0.01875386  0.07912326    -0.81000
O1632       O  0.70490868  0.01895164  0.40104247    -0.82700
C1633       C  0.77144043  0.35686506  0.08040638    -0.12200
C1634       C  0.75716636  0.38223356  0.08576890     0.04800
C1635       C  0.74054126  0.38474324  0.11069586    -0.07500
C1636       C  0.73850069  0.36230441  0.12990589    -0.08300
C1637       C  0.75329281  0.33692879  0.12538529    -0.02800
C1638       C  0.76989708  0.33423094  0.10003560     0.04000
N1639       N  0.78514105  0.30884979  0.09373873     0.66500
H1640       H  0.78388365  0.35467536  0.06098375     0.15400
H1641       H  0.72580536  0.36530596  0.14905055     0.15100
N1642       N  0.72526012  0.41009765  0.11667259     0.74200
O1643       O  0.77210292  0.28565113  0.09259098    -0.39200
O1644       O  0.81067470  0.31008439  0.08549916    -0.39200
O1645       O  0.70003646  0.41287528  0.10797299    -0.39900
O1646       O  0.73567595  0.42812769  0.13350359    -0.40000
C1647       C  0.76625342  0.15724050  0.38348773    -0.12200
C1648       C  0.74093801  0.16261174  0.36864145     0.04800
C1649       C  0.71608125  0.14768628  0.37643884    -0.07500
C1650       C  0.71741329  0.12675805  0.39768924    -0.08300
C1651       C  0.74284484  0.12099452  0.41226164    -0.02800
C1652       C  0.76746293  0.13680586  0.40528536     0.04000
N1653       N  0.79432648  0.13103293  0.41855611     0.66500
H1654       H  0.78547131  0.16834122  0.37742869     0.15400
H1655       H  0.69843632  0.11479505  0.40273922     0.15100
N1656       N  0.68970625  0.15235751  0.36186849     0.74200
O1657       O  0.80500330  0.10669530  0.41700136    -0.39200
O1658       O  0.80918126  0.15102838  0.42817520    -0.39200
O1659       O  0.67749708  0.13214605  0.34937437    -0.39900
O1660       O  0.67627285  0.17502207  0.36584172    -0.40000
C1661       C  0.86013835  0.11872048  0.48340268    -0.12200
C1662       C  0.85441519  0.10472192  0.50925784     0.04800
C1663       C  0.84424990  0.13544558  0.01678125    -0.07500
C1664       C  0.86473684  0.15688205  0.01595296    -0.08300
C1665       C  0.89308812  0.15041150  0.50748011    -0.02800
C1666       C  0.87916150  0.14139672  0.48217953     0.04000
N1667       N  0.88384095  0.15512777  0.45513384     0.66500
H1668       H  0.84960661  0.11201874  0.46391427     0.15400
H1669       H  0.85823191  0.17858680  0.01883655     0.15100
N1670       N  0.81525696  0.14273600  0.02211775     0.74200
O1671       O  0.88640551  0.14073283  0.43254058    -0.39200
O1672       O  0.88252590  0.18162007  0.45330621    -0.39200
O1673       O  0.80678402  0.14623809  0.04753153    -0.39900
O1674       O  0.79931930  0.14954354  0.00150145    -0.40000
C1675       C  0.63053306  0.35318229  0.01415510    -0.12200
C1676       C  0.61112503  0.34904895  0.99184315     0.04800
C1677       C  0.61098926  0.36858204  0.46651202    -0.07500
C1678       C  0.62980837  0.39145190  0.46708314    -0.08300
C1679       C  0.64979648  0.39470841  0.99005916    -0.02800
C1680       C  0.64987313  0.37561381  0.01352283     0.04000
N1681       N  0.66871894  0.37910439  0.03736893     0.66500
H1682       H  0.63020092  0.33926022  0.03258405     0.15400
H1683       H  0.62934475  0.40642651  0.44954391     0.15100
N1684       N  0.59090477  0.36653083  0.44363221     0.74200
O1685       O  0.66692222  0.40077752  0.05289465    -0.39200
O1686       O  0.68458514  0.35904497  0.04506734    -0.39200
O1687       O  0.56963817  0.38270249  0.44305771    -0.39900
O1688       O  0.59607989  0.35085621  0.42243815    -0.40000
C1689       C  0.59160746  0.27304347  0.35890796    -0.12200
C1690       C  0.58431573  0.24857430  0.37418527     0.04800
C1691       C  0.59517895  0.22236372  0.36446369    -0.07500
C1692       C  0.61419175  0.22149146  0.34127332    -0.08300
C1693       C  0.62244338  0.24611850  0.32692858    -0.02800
C1694       C  0.61007493  0.27203647  0.33524886     0.04000
N1695       N  0.61764955  0.29785423  0.32130648     0.66500
H1696       H  0.58331462  0.29326251  0.36566837     0.15400
H1697       H  0.62360831  0.20151420  0.33528046     0.15100
N1698       N  0.58890516  0.19659483  0.37909073     0.74200
O1699       O  0.60851485  0.30292362  0.29639956    -0.39200
O1700       O  0.62917412  0.31736579  0.33549517    -0.39200
O1701       O  0.57564451  0.17728834  0.36621614    -0.39900
O1702       O  0.60039094  0.19144668  0.40296902    -0.40000
C1703       C  0.88099974  0.27949491  0.15260524    -0.12200
C1704       C  0.87388628  0.25440113  0.16680473     0.04800
C1705       C  0.88912868  0.22957902  0.16012631    -0.07500
C1706       C  0.90958772  0.22996096  0.13821778    -0.08300
C1707       C  0.91531979  0.25462140  0.12257569    -0.02800
C1708       C  0.90170069  0.27992039  0.13092868     0.04000
N1709       N  0.90710059  0.30586500  0.11633913     0.66500
H1710       H  0.86964025  0.29872559  0.15762010     0.15400
H1711       H  0.91994991  0.21041271  0.13237226     0.15100
N1712       N  0.88232384  0.20323150  0.17345681     0.74200
O1713       O  0.89356973  0.31178484  0.09378098    -0.39200
O1714       O  0.92248537  0.32435547  0.12799007    -0.39200
O1715       O  0.85825331  0.19217869  0.16945871    -0.39900
O1716       O  0.90157000  0.18916230  0.18569669    -0.40000
C1717       C  0.86695629  0.09324812  0.26324069    -0.12200
C1718       C  0.89527519  0.10285941  0.26332763     0.04800
C1719       C  0.90042514  0.13196237  0.26112222    -0.07500
C1720       C  0.87754155  0.15070358  0.25833522    -0.08300
C1721       C  0.84915632  0.14119497  0.25852463    -0.02800
C1722       C  0.84388705  0.11198050  0.26097237     0.04000
N1723       N  0.81551322  0.10086024  0.26014897     0.66500
H1724       H  0.86272230  0.07085780  0.26466416     0.15400
H1725       H  0.88205367  0.17303095  0.25675319     0.15100
N1726       N  0.92876657  0.14277735  0.26091948     0.74200
O1727       O  0.79831086  0.10901388  0.24111541    -0.39200
O1728       O  0.80873866  0.08041517  0.27606988    -0.39200
O1729       O  0.93937924  0.15186633  0.23784956    -0.39900
O1730       O  0.94145958  0.14714611  0.28431405    -0.40000
C1731       C  0.61440520  0.38705052  0.21291204    -0.12200
C1732       C  0.60262113  0.39456788  0.23949144     0.04800
C1733       C  0.61491934  0.38391202  0.26491654    -0.07500
C1734       C  0.63785317  0.36508915  0.26313031    -0.08300
C1735       C  0.64921628  0.35709492  0.23652124    -0.02800
C1736       C  0.63763904  0.36862415  0.21119890     0.04000
N1737       N  0.64851348  0.36104508  0.18358336     0.66500
H1738       H  0.60562667  0.39572986  0.19333046     0.15400
H1739       H  0.64660497  0.35627422  0.28266381     0.15100
N1740       N  0.60399489  0.39142499  0.29259745     0.74200
O1741       O  0.64661299  0.33595216  0.17491200    -0.39200
O1742       O  0.65747041  0.37988772  0.16674855    -0.39200
O1743       O  0.57770560  0.38968657  0.29771920    -0.39900
O1744       O  0.62084132  0.39756181  0.31269006    -0.40000
C1745       C  0.65389221  0.02591730  0.36751565    -0.12200
C1746       C  0.66721941  0.50190662  0.37709544     0.04800
C1747       C  0.65656484  0.47673237  0.36501994    -0.07500
C1748       C  0.63490095  0.47811602  0.34429552    -0.08300
C1749       C  0.62087038  0.00245319  0.33546535    -0.02800
C1750       C  0.63104012  0.02726225  0.34831039     0.04000
N1751       N  0.61812483  0.05386849  0.34239594     0.66500
H1752       H  0.66104694  0.04515037  0.37769106     0.15400
H1753       H  0.62654868  0.45873441  0.33540886     0.15100
N1754       N  0.66734594  0.44971519  0.37360196     0.74200
O1755       O  0.59874875  0.06301460  0.35861703    -0.39200
O1756       O  0.62873680  0.06985335  0.32360918    -0.39200
O1757       O  0.65069209  0.42903627  0.37631153    -0.39900
O1758       O  0.69376682  0.44584779  0.37617681    -0.40000
C1759       C  0.85837630  0.51908706  0.12031230    -0.12200
C1760       C  0.83768397  0.99976774  0.12270477     0.04800
C1761       C  0.86700387  0.00008887  0.11600695    -0.07500
C1762       C  0.88704389  0.99754631  0.13796829    -0.08300
C1763       C  0.87804676  0.49972683  0.16430860    -0.02800
C1764       C  0.88108130  0.51615884  0.13936314     0.04000
N1765       N  0.90721009  0.53035915  0.13324455     0.66500
H1766       H  0.86176981  0.53128882  0.10096470     0.15400
H1767       H  0.90940492  0.99787927  0.13236063     0.15100
N1768       N  0.87689134  0.00166615  0.08689834     0.74200
O1769       O  0.92259928  0.52224481  0.11268819    -0.39200
O1770       O  0.83212570  0.96810114  0.21178317    -0.39200
O1771       O  0.80217442  0.45170290  0.16812807    -0.39900
O1772       O  0.86782731  0.98444486  0.06844319    -0.40000
C1773       C  0.52317201  0.37965754  0.09826637    -0.12200
C1774       C  0.99718388  0.37510578  0.08127058     0.04800
C1775       C  0.97280187  0.39113169  0.08837594    -0.07500
C1776       C  0.97490655  0.41267513  0.10905118    -0.08300
C1777       C  0.49992421  0.41612444  0.12661696    -0.02800
C1778       C  0.52461359  0.40096191  0.11900318     0.04000
N1779       N  0.55121042  0.40629262  0.13275738     0.66500
H1780       H  0.54222407  0.36765001  0.09366731     0.15400
H1781       H  0.95590412  0.42416353  0.11497907     0.15100
N1782       N  0.94582714  0.38578649  0.07500435     0.74200
O1783       O  0.56106504  0.38869877  0.15043933    -0.39200
O1784       O  0.56642940  0.42665867  0.12460192    -0.39200
O1785       O  0.92308778  0.38858280  0.08910525    -0.39900
O1786       O  0.94444831  0.38113511  0.04839984    -0.40000
C1787       C  0.02969336  0.09011960  0.38870774    -0.12200
C1788       C  0.00315976  0.08336546  0.37654926     0.04800
C1789       C  0.47531222  0.09889135  0.38293576    -0.07500
C1790       C  0.47764294  0.12054747  0.40324476    -0.08300
C1791       C  0.50408476  0.12828041  0.41495679    -0.02800
C1792       C  0.03257999  0.11157035  0.40936111     0.04000
N1793       N  0.06021221  0.11739745  0.42111408     0.66500
H1794       H  0.04855807  0.07916467  0.38143669     0.15400
H1795       H  0.45867404  0.13220206  0.40898500     0.15100
N1796       N  0.44798448  0.09245224  0.37128341     0.74200
O1797       O  0.06305276  0.12214555  0.44758133    -0.39200
O1798       O  0.08217504  0.11443838  0.40583885    -0.39200
O1799       O  0.43497899  0.07061643  0.37940500    -0.39900
O1800       O  0.43561069  0.10997377  0.35521617    -0.40000
O1801       O  0.96486647  0.02103321  0.71580949    -0.88300
C1802       C  0.95550455  0.00708606  0.80245748     0.87700
Mg1803     Mg  0.97183368  0.49076364  0.68518574     1.58100
O1804       O  0.52147070  0.03724238  0.78372822    -0.88000
O1805       O  0.98338410  0.06082451  0.73019192    -0.75400
C1806       C  0.58039813  0.41727295  0.74018553     0.92800
O1807       O  0.93987103  0.46963336  0.74769912    -0.75200
O1808       O  0.55850300  0.41316710  0.72466969    -0.82700
Mg1809     Mg  0.92992704  0.01374147  0.74520639     1.58000
C1810       C  0.59791148  0.00279352  0.81663286     0.92700
O1811       O  0.91484675  0.05935486  0.74644077    -0.81000
H1812       H  0.54294174  0.06871435  0.76516307    -0.06300
C1813       C  0.52442715  0.45473849  0.79070270     0.87600
O1814       O  0.52070576  0.49988316  0.68394209    -0.75500
O1815       O  0.95880518  0.02120170  0.78045886    -0.88200
O1816       O  0.57562695  0.01622533  0.82412154    -0.81000
C1817       C  0.99883873  0.06401197  0.84970221     0.92800
C1818       C  0.91848216  0.08204282  0.76044419     0.92700
Mg1819     Mg  0.56873126  0.48535802  0.75489185     1.58000
O1820       O  0.58403208  0.44001917  0.75400394    -0.81000
O1821       O  0.55912055  0.02984516  0.75718812    -0.75200
O1822       O  0.98152153  0.06826304  0.82900565    -0.81000
O1823       O  0.89950076  0.00736734  0.70771320    -0.82800
O1824       O  0.51681988  0.43108488  0.67245089    -0.81100
C1825       C  0.54121216  0.04628579  0.76884810     0.87100
O1826       O  0.53928516  0.47787483  0.72051820    -0.88200
O1827       O  0.53488490  0.47797862  0.78519743    -0.88300
O1828       O  0.51582716  0.43829706  0.77109936    -0.75400
Mg1829     Mg  0.98174194  0.06089518  0.77946323     1.58000
O1830       O  0.52015167  0.04371852  0.85065536    -0.82800
H1831       H  0.97795544  0.05064488  0.68827403    -0.06500
O1832       O  0.97690228  0.46191796  0.72054690    -0.88000
H1833       H  0.95516616  0.43060463  0.73901658    -0.06300
H1834       H  0.56294296  0.49970946  0.69269453    -0.06500
C1835       C  0.95720867  0.45302455  0.73553212     0.87100
C1836       C  0.97515563  0.04437305  0.71044371     0.87700
C1837       C  0.54201908  0.49247754  0.69878928     0.87700
H1838       H  0.52179104  0.44852534  0.81297224    -0.06500
O1839       O  0.97647506  0.99983058  0.81791652    -0.75500
Mg1840     Mg  0.51690909  0.43805371  0.72177755     1.58000
H1841       H  0.93438638  0.00028903  0.80836533    -0.06500
C1842       C  0.90084687  0.49797944  0.68794220     0.92700
O1843       O  0.97871412  0.45477256  0.65331771    -0.82700
C1844       C  0.49976037  0.43552282  0.65161393     0.92800
O1845       O  0.94036615  0.08608217  0.77601441    -0.82700
Mg1846     Mg  0.52708894  0.00824027  0.81881108     1.58200
O1847       O  0.92297879  0.48473739  0.67953117    -0.81000
O1848       O  0.59981880  0.49160428  0.79114976    -0.82700
O1849       O  0.50638715  0.27315913  0.54949839    -0.88300
C1850       C  0.93373692  0.25604332  0.00048390     0.87700
Mg1851     Mg  0.53950006  0.29949201  0.53283185     1.58100
O1852       O  0.98715241  0.19798411  0.51027347    -0.88000
O1853       O  0.00021541  0.22971402  0.56913207    -0.75400
C1854       C  0.57112317  0.24856083  0.90616539     0.92800
O1855       O  0.97515980  0.31095145  0.50489436    -0.75200
O1856       O  0.57004330  0.27205049  0.91931842    -0.82700
Mg1857     Mg  0.96383823  0.28825985  0.54688971     1.58000
C1858       C  0.50991639  0.15182394  0.93716715     0.92700
O1859       O  0.94755636  0.27011870  0.58946390    -0.81000
H1860       H  0.50906393  0.17257227  0.53097215    -0.06300
C1861       C  0.98846476  0.24606607  0.93232877     0.87600
O1862       O  0.56574603  0.26110914  0.51880560    -0.75500
O1863       O  0.95295487  0.25023116  0.52419235    -0.88200
O1864       O  0.98324031  0.16100310  0.94831201    -0.81000
C1865       C  0.91421736  0.17332128  0.00682911     0.92800
C1866       C  0.93390296  0.24852991  0.59804936     0.92700
Mg1867     Mg  0.54260197  0.20894327  0.95836272     1.58000
O1868       O  0.55850782  0.22663596  0.91548283    -0.81000
O1869       O  0.53168272  0.18697148  0.00103402    -0.75200
O1870       O  0.92208142  0.18651912  0.52830189    -0.81000
O1871       O  0.97502075  0.32866323  0.57084874    -0.82800
O1872       O  0.58246766  0.31179453  0.97382854    -0.81100
C1873       C  0.50783264  0.18604291  0.51224167     0.87100
O1874       O  0.55337366  0.24752638  0.98021458    -0.88200
O1875       O  0.99562657  0.22739448  0.94927130    -0.88300
O1876       O  0.50480939  0.26698477  0.93572330    -0.75400
Mg1877     Mg  0.96128977  0.21094901  0.54620397     1.58000
O1878       O  0.92878082  0.17343526  0.98394589    -0.82800
H1879       H  0.53207887  0.25756459  0.57972726    -0.06500
O1880       O  0.51878945  0.29976308  0.99396778    -0.88000
H1881       H  0.99370116  0.32877791  0.96555025    -0.06300
H1882       H  0.58354841  0.22956431  0.49564795    -0.06500
C1883       C  0.99452000  0.31564407  0.98452792     0.87100
C1884       C  0.51384505  0.25422174  0.56599938     0.87700
C1885       C  0.56770308  0.24602983  0.49643395     0.87700
H1886       H  0.97032537  0.24260559  0.91851893    -0.06500
O1887       O  0.93585107  0.24009608  0.97874522    -0.75500
Mg1888     Mg  0.54376415  0.28642960  0.95765667     1.58000
H1889       H  0.91790746  0.27253248  0.00050365    -0.06500
C1890       C  0.99626556  0.34519579  0.56906660     0.92700
O1891       O  0.57447282  0.32701166  0.51558407    -0.83100
C1892       C  0.58795760  0.32793780  0.49197820     0.92800
O1893       O  0.93433525  0.22537649  0.58419623    -0.82700
Mg1894     Mg  0.96250973  0.20139762  0.96611927     1.58200
O1895       O  0.51871788  0.33955618  0.55219945    -0.81000
O1896       O  0.53125469  0.16816324  0.93469142    -0.82700
O1897       O  0.71198678  0.27474422  0.72038393    -0.88300
C1898       C  0.79411895  0.29783680  0.73605392     0.87700
Mg1899     Mg  0.68186295  0.26725391  0.75431372     1.58100
O1900       O  0.78403009  0.22742681  0.71465686    -0.88000
O1901       O  0.73018599  0.25375505  0.68298421    -0.75400
C1902       C  0.74658158  0.18319620  0.84723901     0.92800
O1903       O  0.73581307  0.31258105  0.77228965    -0.75200
O1904       O  0.72828847  0.20289985  0.84638771    -0.82700
Mg1905     Mg  0.73555129  0.31380098  0.72302075     1.58000
C1906       C  0.82725980  0.16394084  0.75905896     0.92700
O1907       O  0.73667590  0.32175183  0.67419103    -0.81000
H1908       H  0.77046994  0.19902858  0.68611012    -0.06300
C1909       C  0.79112164  0.23936487  0.80158724     0.87600
O1910       O  0.68895781  0.21947081  0.75232101    -0.75500
O1911       O  0.77419933  0.28979365  0.72092012    -0.88200
O1912       O  0.83151345  0.18667690  0.74530542    -0.81000
C1913       C  0.84899347  0.25381289  0.68709234     0.92800
C1914       C  0.75366421  0.31785678  0.65317538     0.92700
Mg1915     Mg  0.76441403  0.18637256  0.77704491     1.58000
O1916       O  0.76325506  0.17849756  0.82610787    -0.81000
O1917       O  0.76399884  0.18781372  0.72766208    -0.75200
O1918       O  0.82706338  0.26772208  0.67943184    -0.81000
O1919       O  0.69464005  0.33967393  0.72549842    -0.82800
O1920       O  0.67377464  0.23244054  0.82014216    -0.81100
C1921       C  0.77305097  0.20459450  0.70849340     0.87100
O1922       O  0.72600186  0.21052959  0.77904986    -0.88200
O1923       O  0.78799931  0.22539948  0.77950868    -0.88300
O1924       O  0.76999861  0.24718219  0.81651869    -0.75400
Mg1925     Mg  0.77841906  0.26178436  0.68476714     1.58000
O1926       O  0.84925407  0.23879036  0.70960339    -0.82800
H1927       H  0.68788270  0.25482584  0.69154238    -0.06500
O1928       O  0.71577535  0.27292032  0.78498474    -0.88000
H1929       H  0.72880758  0.30136489  0.81376174    -0.06300
H1930       H  0.70373747  0.18002947  0.75993937    -0.06500
C1931       C  0.72652333  0.29580217  0.79130447     0.87100
C1932       C  0.70898459  0.26113611  0.69805662     0.87700
C1933       C  0.70610188  0.20231923  0.76398443     0.87700
H1934       H  0.81226656  0.24571289  0.80791658    -0.06500
O1935       O  0.81118157  0.28053311  0.74762308    -0.75500
Mg1936     Mg  0.72190131  0.23888205  0.81486343     1.58000
H1937       H  0.79660491  0.32009720  0.74019816    -0.06500
C1938       C  0.67216023  0.33588291  0.74021851     0.92700
O1939       O  0.65018174  0.26045539  0.79030292    -0.82700
C1940       C  0.65114217  0.24527743  0.81272457     0.92800
O1941       O  0.77224166  0.29835592  0.65356885    -0.82700
Mg1942     Mg  0.81785914  0.23264490  0.74546375     1.58200
O1943       O  0.66775655  0.31316021  0.75398828    -0.81000
O1944       O  0.80514952  0.16023266  0.77438482    -0.82700
O1945       O  0.78858670  0.48282739  0.53451257    -0.88300
C1946       C  0.70216188  0.47466168  0.54099462     0.87700
Mg1947     Mg  0.81345400  0.01838292  0.52689663     1.58100
O1948       O  0.72955197  0.46288237  0.97005308    -0.88000
O1949       O  0.78510566  0.44547080  0.50734906    -0.75400
C1950       C  0.74269324  0.09841722  0.93680960     0.92800
O1951       O  0.75050363  0.02048241  0.56332848    -0.75200
O1952       O  0.75592975  0.10105696  0.96040157    -0.82700
Mg1953     Mg  0.75802458  0.47562614  0.56800110     1.58000
C1954       C  0.68599263  0.50132217  0.90064913     0.92700
O1955       O  0.76799776  0.42867067  0.57418030    -0.81000
H1956       H  0.75369396  0.44092877  0.94277631    -0.06300
C1957       C  0.70033040  0.04064765  0.98487521     0.87600
O1958       O  0.81362980  0.01960180  0.98072752    -0.75500
O1959       O  0.72660693  0.46666919  0.53597970    -0.88200
O1960       O  0.68224906  0.48266463  0.92008598    -0.81000
C1961       C  0.66995868  0.41856498  0.48851480     0.92800
C1962       C  0.75722260  0.40532927  0.56628647     0.92700
Mg1963     Mg  0.74034213  0.02811055  0.93568959     1.58000
O1964       O  0.73118758  0.07529464  0.92925018    -0.81000
O1965       O  0.75152916  0.48277760  0.93413401    -0.75200
O1966       O  0.69292444  0.41625146  0.50262091    -0.81000
O1967       O  0.79201750  0.48384586  0.60092612    -0.82800
O1968       O  0.80833985  0.08736803  0.99953311    -0.81100
C1969       C  0.74499134  0.46117022  0.94872909     0.87100
O1970       O  0.77296962  0.03695715  0.96658978    -0.88200
O1971       O  0.71091818  0.02153621  0.97046904    -0.88300
O1972       O  0.71562755  0.05922373  0.99687309    -0.75400
Mg1973     Mg  0.73768553  0.43374351  0.50590824     1.58000
O1974       O  0.66543403  0.43930870  0.97165333    -0.82800
H1975       H  0.82264549  0.46398057  0.51753742    -0.06500
O1976       O  0.77287712  0.03957961  0.52713524    -0.88000
H1977       H  0.74923289  0.06227072  0.55421436    -0.06300
H1978       H  0.80360583  0.02625817  0.93894367    -0.06500
C1979       C  0.75748825  0.04180107  0.54846386     0.87100
C1980       C  0.79980187  0.46408749  0.52005571     0.87700
C1981       C  0.79696637  0.02793621  0.96110910     0.87700
H1982       H  0.67756226  0.04115200  0.98794222    -0.06500
O1983       O  0.68557181  0.48235875  0.52106713    -0.75500
Mg1984     Mg  0.76326062  0.07007366  0.99700098     1.58000
H1985       H  0.69494460  0.47588937  0.56310981    -0.06500
C1986       C  0.81533805  0.00122658  0.59678977     0.92700
O1987       O  0.83689954  0.06028247  0.52547466    -0.82700
C1988       C  0.83135745  0.08403285  0.01337175     0.92800
O1989       O  0.74461514  0.40255676  0.54237982    -0.82700
Mg1990     Mg  0.68780822  0.48222718  0.96989194     1.58200
O1991       O  0.81935518  0.01829543  0.57599872    -0.81000
O1992       O  0.70520201  0.01955026  0.90378007    -0.82700
C1993       C  0.76538502  0.35489267  0.58081511    -0.12200
C1994       C  0.75612133  0.38219008  0.58754103     0.04800
C1995       C  0.74479594  0.38752752  0.61502623    -0.07500
C1996       C  0.74350904  0.36591562  0.63531789    -0.08300
C1997       C  0.75308833  0.33856994  0.62909941    -0.02800
C1998       C  0.76411084  0.33300790  0.60132710     0.04000
N1999       N  0.77363387  0.30539263  0.59342825     0.66500
H2000       H  0.77365724  0.35060003  0.55958417     0.15400
H2001       H  0.73514377  0.37080688  0.65638476     0.15100
N2002       N  0.73379915  0.41474076  0.62248672     0.74200
O2003       O  0.75788502  0.28428573  0.59773872    -0.39200
O2004       O  0.79623083  0.30243059  0.57913918    -0.39200
O2005       O  0.71448002  0.42588033  0.60751782    -0.39900
O2006       O  0.74135040  0.42640087  0.64555779    -0.40000
C2007       C  0.76062309  0.13727643  0.86858453    -0.12200
C2008       C  0.74727931  0.16351531  0.87229824     0.04800
C2009       C  0.73263909  0.16865916  0.89848742    -0.07500
C2010       C  0.73134154  0.14744596  0.91969186    -0.08300
C2011       C  0.74426474  0.12122595  0.91528647    -0.02800
C2012       C  0.75925919  0.11637816  0.88962674     0.04000
N2013       N  0.77352676  0.09018912  0.88475627     0.66500
H2014       H  0.77185957  0.13254887  0.84888581     0.15400
H2015       H  0.72008027  0.15138520  0.93955429     0.15100
N2016       N  0.71907517  0.19512494  0.90401072     0.74200
O2017       O  0.76561258  0.07425152  0.86466444    -0.39200
O2018       O  0.79514546  0.08379323  0.89937698    -0.39200
O2019       O  0.69389653  0.19572889  0.91335690    -0.39900
O2020       O  0.73334396  0.21761887  0.90314873    -0.40000
C2021       C  0.88106743  0.10070877  0.00799406    -0.12200
C2022       C  0.85243645  0.10706800  0.01281145     0.04800
C2023       C  0.86784660  0.11401997  0.53465759    -0.07500
C2024       C  0.88707417  0.13662558  0.53345399    -0.08300
C2025       C  0.89325769  0.15053204  0.01038656    -0.02800
C2026       C  0.90156392  0.12209589  0.00655266     0.04000
N2027       N  0.93074493  0.11457704  0.00153695     0.66500
H2028       H  0.88748654  0.07897972  0.00510773     0.15400
H2029       H  0.89774114  0.14316113  0.55292170     0.15100
N2030       N  0.86165335  0.10135307  0.56189516     0.74200
O2031       O  0.95029973  0.12530003  0.01648801    -0.39200
O2032       O  0.93682373  0.09533007  0.98392335    -0.39200
O2033       O  0.88162788  0.09495073  0.57873131    -0.39900
O2034       O  0.83629247  0.09970996  0.57059556    -0.40000
C2035       C  0.63048121  0.35200990  0.51154050    -0.12200
C2036       C  0.61095474  0.34889105  0.48915049     0.04800
C2037       C  0.61148790  0.36748475  0.96811292    -0.07500
C2038       C  0.63070330  0.39003469  0.96740472    -0.08300
C2039       C  0.64923137  0.39492715  0.48969454    -0.02800
C2040       C  0.64965510  0.37459157  0.51205822     0.04000
N2041       N  0.66859917  0.37694763  0.53600288     0.66500
H2042       H  0.63024464  0.33722498  0.52926155     0.15400
H2043       H  0.63050409  0.40407543  0.94907878     0.15100
N2044       N  0.59132718  0.36457084  0.94537747     0.74200
O2045       O  0.66736730  0.39821240  0.55216720    -0.39200
O2046       O  0.68367623  0.35616260  0.54331501    -0.39200
O2047       O  0.56561175  0.37095681  0.94950011    -0.39900
O2048       O  0.59961289  0.35792784  0.92055911    -0.40000
C2049       C  0.59018610  0.26843441  0.86058346    -0.12200
C2050       C  0.58899947  0.24601376  0.88014214     0.04800
C2051       C  0.60604943  0.22188069  0.87524004    -0.07500
C2052       C  0.62414215  0.22111366  0.85135566    -0.08300
C2053       C  0.62636241  0.24406459  0.83248504    -0.02800
C2054       C  0.60837161  0.26760407  0.83673455     0.04000
N2055       N  0.60959394  0.29162767  0.81821650     0.66500
H2056       H  0.57714813  0.28693609  0.86404767     0.15400
H2057       H  0.63808696  0.20314314  0.84866135     0.15100
N2058       N  0.60733487  0.19910737  0.89552558     0.74200
O2059       O  0.59929217  0.29015257  0.79329271    -0.39200
O2060       O  0.61664261  0.31530842  0.82819190    -0.39200
O2061       O  0.60883711  0.17401986  0.88673342    -0.39900
O2062       O  0.61192696  0.20414488  0.92168756    -0.40000
C2063       C  0.88262572  0.27792699  0.65381801    -0.12200
C2064       C  0.87404437  0.25329633  0.66789821     0.04800
C2065       C  0.88756867  0.22759539  0.66104363    -0.07500
C2066       C  0.90795497  0.22666990  0.63915453    -0.08300
C2067       C  0.91554942  0.25105205  0.62391940    -0.02800
C2068       C  0.90335108  0.27714226  0.63220553     0.04000
N2069       N  0.91029221  0.30280816  0.61772081     0.66500
H2070       H  0.87245396  0.29777708  0.65892079     0.15400
H2071       H  0.91710951  0.20652713  0.63334946     0.15100
N2072       N  0.87905410  0.20180228  0.67436892     0.74200
O2073       O  0.90005029  0.30777202  0.59323525    -0.39200
O2074       O  0.92321882  0.32208191  0.63098254    -0.39200
O2075       O  0.85756037  0.18871971  0.66521547    -0.39900
O2076       O  0.89461413  0.19066467  0.69325387    -0.40000
C2077       C  0.86703449  0.09405469  0.75881196    -0.12200
C2078       C  0.89545516  0.10331643  0.75948904     0.04800
C2079       C  0.90104024  0.13241448  0.75982279    -0.07500
C2080       C  0.87843417  0.15158031  0.75908731    -0.08300
C2081       C  0.84999927  0.14237935  0.75837754    -0.02800
C2082       C  0.84427477  0.11320431  0.75831690     0.04000
N2083       N  0.81571327  0.10267552  0.75697641     0.66500
H2084       H  0.86246231  0.07168979  0.75866357     0.15400
H2085       H  0.88318306  0.17391216  0.75939631     0.15100
N2086       N  0.92953267  0.14283973  0.76021251     0.74200
O2087       O  0.79865336  0.11206054  0.73840554    -0.39200
O2088       O  0.80843083  0.08190085  0.77220786    -0.39200
O2089       O  0.94444989  0.14198156  0.73773920    -0.39900
O2090       O  0.93882073  0.15536721  0.78212669    -0.40000
C2091       C  0.63179817  0.40545190  0.74130967    -0.12200
C2092       C  0.60342392  0.39602550  0.74126837     0.04800
C2093       C  0.59793552  0.36684072  0.74105462    -0.07500
C2094       C  0.62080375  0.34787575  0.74060095    -0.08300
C2095       C  0.64919023  0.35727994  0.74022446    -0.02800
C2096       C  0.65460819  0.38646927  0.74029949     0.04000
N2097       N  0.68301324  0.39722211  0.73985257     0.66500
H2098       H  0.63633291  0.42783024  0.74123997     0.15400
H2099       H  0.61631884  0.32549347  0.74067254     0.15100
N2100       N  0.56945294  0.35610578  0.74232969     0.74200
O2101       O  0.69682159  0.39731334  0.71664563    -0.39200
O2102       O  0.69196657  0.41154793  0.76074501    -0.39200
O2103       O  0.56230114  0.33549761  0.72686957    -0.39900
O2104       O  0.55237215  0.36508807  0.76109620    -0.40000
C2105       C  0.65617319  0.02627566  0.86767684    -0.12200
C2106       C  0.66655144  0.50240909  0.87574266     0.04800
C2107       C  0.65882344  0.47829899  0.85994032    -0.07500
C2108       C  0.63774557  0.48054244  0.83868559    -0.08300
C2109       C  0.62302752  0.00280973  0.83571473    -0.02800
C2110       C  0.63420394  0.02774445  0.84740395     0.04000
N2111       N  0.62332975  0.05464698  0.83902509     0.66500
H2112       H  0.66410216  0.04567816  0.87690489     0.15400
H2113       H  0.63149600  0.46182773  0.82700666     0.15100
N2114       N  0.67203356  0.45154813  0.86521899     0.74200
O2115       O  0.61211695  0.07063553  0.85742602    -0.39200
O2116       O  0.62644338  0.06315752  0.81357812    -0.39200
O2117       O  0.65736545  0.42929127  0.86503163    -0.39900
O2118       O  0.69867443  0.44982488  0.86788296    -0.40000
C2119       C  0.83851992  0.52517598  0.64361220    -0.12200
C2120       C  0.83576864  0.00173086  0.62103831     0.04800
C2121       C  0.82888199  0.99299718  0.64931609    -0.07500
C2122       C  0.85074216  0.99034312  0.66990636    -0.08300
C2123       C  0.87544203  0.49886441  0.66906211    -0.02800
C2124       C  0.86049979  0.52435027  0.66402998     0.04000
N2125       N  0.86864327  0.55000990  0.67792903     0.66500
H2126       H  0.82821347  0.54505036  0.63888133     0.15400
H2127       H  0.84552912  0.98422031  0.69166194     0.15100
N2128       N  0.80003208  0.98730967  0.65761148     0.74200
O2129       O  0.89324046  0.55996810  0.67415559    -0.39200
O2130       O  0.92310908  0.03549334  0.62626682    -0.39200
O2131       O  0.85407400  0.44046211  0.60070742    -0.39900
O2132       O  0.78017123  0.00323180  0.64934547    -0.40000
C2133       C  0.52391617  0.38022296  0.59752751    -0.12200
C2134       C  0.99655796  0.37170620  0.58622849     0.04800
C2135       C  0.97146510  0.38664663  0.59343706    -0.07500
C2136       C  0.97279628  0.40864633  0.61368235    -0.08300
C2137       C  0.50038811  0.41608881  0.62648735    -0.02800
C2138       C  0.52529996  0.40165400  0.61818962     0.04000
N2139       N  0.55211844  0.40806584  0.63100227     0.66500
H2140       H  0.54317731  0.36880946  0.59230026     0.15400
H2141       H  0.95335243  0.41928824  0.61979646     0.15100
N2142       N  0.94457158  0.37983232  0.58056436     0.74200
O2143       O  0.56368684  0.39061944  0.64775319    -0.39200
O2144       O  0.56546905  0.42990615  0.62349309    -0.39200
O2145       O  0.92187956  0.38232746  0.59480509    -0.39900
O2146       O  0.94305904  0.37454860  0.55409124    -0.40000
C2147       C  0.02490316  0.08970583  0.88837330    -0.12200
C2148       C  0.99894269  0.08372262  0.87463787     0.04800
C2149       C  0.47842627  0.09831781  0.88625093    -0.07500
C2150       C  0.48141813  0.11957156  0.90687987    -0.08300
C2151       C  0.50792134  0.12591764  0.91927599    -0.02800
C2152       C  0.02730009  0.11136338  0.90889969     0.04000
N2153       N  0.05435868  0.11643535  0.92229100     0.66500
H2154       H  0.04376218  0.07799614  0.88242789     0.15400
H2155       H  0.46289604  0.13199871  0.91243045     0.15100
N2156       N  0.45100479  0.09339680  0.87399878     0.74200
O2157       O  0.05567312  0.12252522  0.94859543    -0.39200
O2158       O  0.07711839  0.11162194  0.90879912    -0.39200
O2159       O  0.43843769  0.07031595  0.87839698    -0.39900
O2160       O  0.43829550  0.11294062  0.86088004    -0.40000
O2161       O  0.96589535  0.52370886  0.21496301    -0.88300
C2162       C  0.95847652  0.50767737  0.30164528     0.87700
Mg2163     Mg  0.97268308  0.98837262  0.18767569     1.58100
O2164       O  0.52261285  0.53839678  0.28260077    -0.88000
O2165       O  0.98455552  0.56318406  0.23009799    -0.75400
C2166       C  0.57810711  0.91330995  0.24170864     0.92800
O2167       O  0.93998072  0.96593688  0.24924795    -0.75200
O2168       O  0.55716882  0.91050745  0.22468471    -0.82700
Mg2169     Mg  0.93183134  0.51501801  0.24528895     1.58000
C2170       C  0.59816789  0.50372652  0.31639389     0.92700
O2171       O  0.91584206  0.56021431  0.24826487    -0.81000
H2172       H  0.54459151  0.56981900  0.26457670    -0.06300
C2173       C  0.52151299  0.95152232  0.29196567     0.87600
O2174       O  0.52067888  0.99705468  0.18542119    -0.75500
O2175       O  0.96146467  0.52212535  0.27983933    -0.88200
O2176       O  0.57573637  0.51696351  0.32376646    -0.81000
C2177       C  0.00159056  0.56403171  0.34942436     0.92800
C2178       C  0.91962449  0.58275914  0.26243559     0.92700
Mg2179     Mg  0.56664671  0.98096927  0.25728493     1.58000
O2180       O  0.58079925  0.93478202  0.25775728    -0.81000
O2181       O  0.56043219  0.53087013  0.25639264    -0.75200
O2182       O  0.98414828  0.56848757  0.32890443    -0.81000
O2183       O  0.90031737  0.50893982  0.20887508    -0.82800
O2184       O  0.51586803  0.92830700  0.17327300    -0.81100
C2185       C  0.54260793  0.54738630  0.26804310     0.87100
O2186       O  0.53813563  0.97432733  0.22206379    -0.88200
O2187       O  0.53196401  0.97481991  0.28673041    -0.88300
O2188       O  0.51382299  0.93491456  0.27209270    -0.75400
Mg2189     Mg  0.98374066  0.56218250  0.27937180     1.58000
O2190       O  0.51993850  0.54498508  0.34974573    -0.82800
H2191       H  0.97838265  0.55409197  0.18803613    -0.06500
O2192       O  0.97753840  0.95889135  0.22251750    -0.88000
H2193       H  0.95628000  0.92721936  0.24093302    -0.06300
H2194       H  0.56272106  0.99609177  0.19501356    -0.06500
C2195       C  0.95786385  0.94966985  0.23735420     0.87100
C2196       C  0.97599531  0.54723309  0.21006576     0.87700
C2197       C  0.54156931  0.98912429  0.20057882     0.87700
H2198       H  0.51837850  0.94523335  0.31421133    -0.06500
O2199       O  0.97964754  0.50032545  0.31674395    -0.75500
Mg2200     Mg  0.51552521  0.93495633  0.22256074     1.58000
H2201       H  0.93746313  0.50064507  0.30766303    -0.06500
C2202       C  0.90192243  0.99347368  0.18848792     0.92700
O2203       O  0.98012191  0.95320058  0.15529750    -0.82700
C2204       C  0.49924690  0.93320569  0.15222291     0.92800
O2205       O  0.94194325  0.58695798  0.27728367    -0.82700
Mg2206     Mg  0.52729168  0.50943637  0.31781715     1.58200
O2207       O  0.92493914  0.98111097  0.18146427    -0.81000
O2208       O  0.59677666  0.98686309  0.29409568    -0.82700
O2209       O  0.50486334  0.77343195  0.04799971    -0.88300
C2210       C  0.93596931  0.75436931  0.50096718     0.87700
Mg2211     Mg  0.53860693  0.79954021  0.03212494     1.58100
O2212       O  0.98430490  0.69964597  0.00788516    -0.88000
O2213       O  0.99807011  0.73062119  0.06673585    -0.75400
C2214       C  0.56837386  0.74994222  0.40398148     0.92800
O2215       O  0.97251301  0.81260079  0.00365910    -0.75200
O2216       O  0.56732190  0.77353241  0.41697682    -0.82700
Mg2217     Mg  0.96144471  0.78954693  0.04563203     1.58000
C2218       C  0.50492757  0.65421035  0.43436302     0.92700
O2219       O  0.94534529  0.77085667  0.08830404    -0.81000
H2220       H  0.50778546  0.67358379  0.03125918    -0.06300
C2221       C  0.99150685  0.74445723  0.43360252     0.87600
O2222       O  0.56510073  0.76112292  0.01906694    -0.75500
O2223       O  0.95029044  0.75187875  0.02252563    -0.88200
O2224       O  0.98561069  0.65965845  0.44913370    -0.81000
C2225       C  0.91479850  0.67245818  0.50598806     0.92800
C2226       C  0.93217693  0.74891404  0.09679270     0.92700
Mg2227     Mg  0.53826159  0.71098132  0.45575498     1.58000
O2228       O  0.55532857  0.72820451  0.41315461    -0.81000
O2229       O  0.52633531  0.68923872  0.49812673    -0.75200
O2230       O  0.91917139  0.68898922  0.02622939    -0.81000
O2231       O  0.97318007  0.82951633  0.07005714    -0.82800
O2232       O  0.58000774  0.81301844  0.47176444    -0.81100
C2233       C  0.50688873  0.68673523  0.01228208     0.87100
O2234       O  0.54944734  0.74936440  0.47766719    -0.88200
O2235       O  0.99848164  0.72582918  0.45066657    -0.88300
O2236       O  0.50182464  0.76986579  0.43276813    -0.75400
Mg2237     Mg  0.95883859  0.71239485  0.04397855     1.58000
O2238       O  0.92973649  0.67273127  0.48333516    -0.82800
H2239       H  0.52956006  0.75804562  0.07917976    -0.06500
O2240       O  0.51591271  0.80224717  0.49144946    -0.88000
H2241       H  0.99642902  0.82709554  0.46723563    -0.06300
H2242       H  0.58332375  0.72963909  0.99617664    -0.06500
C2243       C  0.99692063  0.81381981  0.48612159     0.87100
C2244       C  0.51164585  0.75469090  0.06502490     0.87700
C2245       C  0.56746508  0.74610514  0.99672306     0.87700
H2246       H  0.97360055  0.74091129  0.41951121    -0.06500
O2247       O  0.93832887  0.73878746  0.47900857    -0.75500
Mg2248     Mg  0.54091357  0.78848764  0.45515028     1.58000
H2249       H  0.92025203  0.77097299  0.50101672    -0.06500
C2250       C  0.99448817  0.84594765  0.06805865     0.92700
O2251       O  0.57417611  0.82688413  0.01566348    -0.83100
C2252       C  0.58799299  0.82780085  0.99224990     0.92800
O2253       O  0.93256325  0.72613814  0.08236181    -0.82700
Mg2254     Mg  0.96484600  0.70002110  0.46673720     1.58200
O2255       O  0.51781443  0.83962543  0.05067411    -0.81000
O2256       O  0.52654939  0.67025691  0.43240751    -0.82700
O2257       O  0.71064609  0.77272376  0.21875805    -0.88300
C2258       C  0.79247162  0.79577518  0.23433222     0.87700
Mg2259     Mg  0.68096748  0.76605565  0.25331341     1.58100
O2260       O  0.78228743  0.72523922  0.21366643    -0.88000
O2261       O  0.72858760  0.75114414  0.18157893    -0.75400
C2262       C  0.74427260  0.68193213  0.34650681     0.92800
O2263       O  0.73430887  0.81127676  0.26985966    -0.75200
O2264       O  0.72700433  0.70253201  0.34612675    -0.82700
Mg2265     Mg  0.73392629  0.81172075  0.22045561     1.58000
C2266       C  0.82599428  0.66212633  0.25882518     0.92700
O2267       O  0.73515855  0.81894602  0.17145424    -0.81000
H2268       H  0.76903441  0.69638871  0.18543672    -0.06300
C2269       C  0.78997144  0.73763807  0.30055299     0.87600
O2270       O  0.68760212  0.71812790  0.25136398    -0.75500
O2271       O  0.77265873  0.78779355  0.21899756    -0.88200
O2272       O  0.82957935  0.68429669  0.24391466    -0.81000
C2273       C  0.84720869  0.75168061  0.18574639     0.92800
C2274       C  0.75268024  0.81502011  0.15089378     0.92700
Mg2275     Mg  0.76298880  0.68462234  0.27659186     1.58000
O2276       O  0.76100817  0.67666780  0.32558589    -0.81000
O2277       O  0.76278030  0.68555265  0.22714126    -0.75200
O2278       O  0.82530971  0.76562786  0.17821234    -0.81000
O2279       O  0.69257610  0.83697145  0.22199780    -0.82800
O2280       O  0.67261930  0.73202962  0.31960070    -0.81100
C2281       C  0.77155073  0.70224017  0.20775672     0.87100
O2282       O  0.72447216  0.70887100  0.27837317    -0.88200
O2283       O  0.78654482  0.72361235  0.27857455    -0.88300
O2284       O  0.76901950  0.74579985  0.31551262    -0.75400
Mg2285     Mg  0.77683786  0.75924613  0.18331247     1.58000
O2286       O  0.84751726  0.73640809  0.20808936    -0.82800
H2287       H  0.68632792  0.75239426  0.19038462    -0.06500
O2288       O  0.71521190  0.77143267  0.28339227    -0.88000
H2289       H  0.72817864  0.80046632  0.31163152    -0.06300
H2290       H  0.70200345  0.67856894  0.25916201    -0.06500
C2291       C  0.72571401  0.79453693  0.28925611     0.87100
C2292       C  0.70747810  0.75876209  0.19667388     0.87700
C2293       C  0.70455130  0.70084154  0.26318391     0.87700
H2294       H  0.81122436  0.74374676  0.30674704    -0.06500
O2295       O  0.80942514  0.77843820  0.24605968    -0.75500
Mg2296     Mg  0.72089453  0.73794688  0.31395403     1.58000
H2297       H  0.79497204  0.81802758  0.23849783    -0.06500
C2298       C  0.67131332  0.83410292  0.23866497     0.92700
O2299       O  0.64940513  0.75979206  0.28935612    -0.82700
C2300       C  0.65007454  0.74488220  0.31193027     0.92800
O2301       O  0.77105879  0.79537218  0.15164085    -0.82700
Mg2302     Mg  0.81620084  0.73049397  0.24418489     1.58200
O2303       O  0.66812434  0.81249091  0.25445741    -0.81000
O2304       O  0.80419965  0.65895310  0.27475139    -0.82700
O2305       O  0.79142517  0.97985028  0.03126824    -0.88300
C2306       C  0.70539501  0.97374937  0.04039014     0.87700
Mg2307     Mg  0.80887791  0.52385154  0.03201277     1.58100
O2308       O  0.73081072  0.96007049  0.46743159    -0.88000
O2309       O  0.78683742  0.94212121  0.00491186    -0.75400
C2310       C  0.74042634  0.59953613  0.43847578     0.92800
O2311       O  0.74577262  0.52360106  0.06710219    -0.75200
O2312       O  0.75499444  0.60233287  0.46122092    -0.82700
Mg2313     Mg  0.76197115  0.97372809  0.06626021     1.58000
C2314       C  0.68648504  0.99946980  0.39935816     0.92700
O2315       O  0.77101197  0.92650649  0.07266813    -0.81000
H2316       H  0.75371836  0.93773117  0.43941056    -0.06300
C2317       C  0.69807001  0.54215800  0.48629086     0.87600
O2318       O  0.81181216  0.52314890  0.48558948    -0.75500
O2319       O  0.72952924  0.96499204  0.03510875    -0.88200
O2320       O  0.68347407  0.98093916  0.41900241    -0.81000
C2321       C  0.67101285  0.91760070  0.98892847     0.92800
C2322       C  0.75968695  0.90329646  0.06507943     0.92700
Mg2323     Mg  0.73878909  0.52991316  0.43796101     1.58000
O2324       O  0.72755361  0.57660617  0.43289669    -0.81000
O2325       O  0.75205828  0.97961896  0.43079372    -0.75200
O2326       O  0.69390183  0.91505716  0.00313443    -0.81000
O2327       O  0.79698101  0.98226533  0.09853725    -0.82800
O2328       O  0.80681867  0.58792406  0.50053686    -0.81100
C2329       C  0.74560646  0.95811517  0.44564737     0.87100
O2330       O  0.77082488  0.53830201  0.46980975    -0.88200
O2331       O  0.70885269  0.52295241  0.47208281    -0.88300
O2332       O  0.71316901  0.56108180  0.49811322    -0.75400
Mg2333     Mg  0.73916368  0.93169185  0.00491097     1.58000
O2334       O  0.66605956  0.93854852  0.47052732    -0.82800
H2335       H  0.82487465  0.96007036  0.01417849    -0.06500
O2336       O  0.76755263  0.54360673  0.03107482    -0.88000
H2337       H  0.74287455  0.56533844  0.05803942    -0.06300
H2338       H  0.80269478  0.52821585  0.44329282    -0.06500
C2339       C  0.75191260  0.54520823  0.05227012     0.87100
C2340       C  0.80208677  0.96064517  0.01704079     0.87700
C2341       C  0.79529247  0.53004817  0.46522745     0.87700
H2342       H  0.67527100  0.54257994  0.48917065    -0.06500
O2343       O  0.68864493  0.98157241  0.02062168    -0.75500
Mg2344     Mg  0.76099945  0.57199319  0.49887492     1.58000
H2345       H  0.69859898  0.97551308  0.06259068    -0.06500
C2346       C  0.81110990  0.50552547  0.10124625     0.92700
O2347       O  0.83085968  0.56658397  0.03098605    -0.82700
C2348       C  0.82839127  0.58621136  0.51687014     0.92800
O2349       O  0.74649460  0.90067171  0.04146347    -0.82700
Mg2350     Mg  0.68974731  0.98075296  0.46836979     1.58200
O2351       O  0.81349028  0.52404433  0.08147636    -0.81000
O2352       O  0.70455044  0.52150924  0.40494553    -0.82700
C2353       C  0.76578351  0.85228870  0.07891645    -0.12200
C2354       C  0.75874017  0.88008763  0.08631618     0.04800
C2355       C  0.74885611  0.88572132  0.11425850    -0.07500
C2356       C  0.74605017  0.86391834  0.13411624    -0.08300
C2357       C  0.75324127  0.83605170  0.12716543    -0.02800
C2358       C  0.76347559  0.83021853  0.09915477     0.04000
N2359       N  0.77111248  0.80217726  0.09075576     0.66500
H2360       H  0.77304251  0.84773250  0.05736892     0.15400
H2361       H  0.73865868  0.86909110  0.15548486     0.15100
N2362       N  0.74070792  0.91355646  0.12260613     0.74200
O2363       O  0.75428319  0.78196226  0.09532944    -0.39200
O2364       O  0.79333149  0.79798998  0.07618458    -0.39200
O2365       O  0.71743724  0.92374016  0.11405103    -0.39900
O2366       O  0.75566532  0.92708387  0.14031112    -0.40000
C2367       C  0.74410219  0.67055745  0.39914984    -0.12200
C2368       C  0.74287898  0.66150793  0.37049028     0.04800
C2369       C  0.73957856  0.63250789  0.36467495    -0.07500
C2370       C  0.73836929  0.61327580  0.38737318    -0.08300
C2371       C  0.74029478  0.62196385  0.41610206    -0.02800
C2372       C  0.74342448  0.65102699  0.42194986     0.04000
N2373       N  0.74565326  0.66109736  0.45073213     0.66500
H2374       H  0.74635119  0.69279091  0.40381619     0.15400
H2375       H  0.73600312  0.59112300  0.38235887     0.15100
N2376       N  0.73641613  0.62225669  0.33587019     0.74200
O2377       O  0.76911119  0.65936772  0.46371168    -0.39200
O2378       O  0.72622813  0.67643670  0.46091972    -0.39200
O2379       O  0.74873490  0.59985667  0.32827622    -0.39900
O2380       O  0.71862779  0.63349772  0.31914705    -0.40000
C2381       C  0.86080984  0.61531812  0.48764446    -0.12200
C2382       C  0.84997499  0.60861047  0.51474046     0.04800
C2383       C  0.85738085  0.62477126  0.03641286    -0.07500
C2384       C  0.87789352  0.64608846  0.03336777    -0.08300
C2385       C  0.89118404  0.65164736  0.50829534    -0.02800
C2386       C  0.88133326  0.63633145  0.48419015     0.04000
N2387       N  0.89219885  0.64140939  0.45602491     0.66500
H2388       H  0.85355845  0.60381163  0.46896671     0.15400
H2389       H  0.88489549  0.65730322  0.05229542     0.15100
N2390       N  0.84525143  0.61939318  0.06418035     0.74200
O2391       O  0.90946104  0.62421698  0.44496447    -0.39200
O2392       O  0.88170988  0.66080299  0.44085714    -0.39200
O2393       O  0.86053563  0.62090959  0.08635383    -0.39900
O2394       O  0.81874187  0.61627765  0.06695789    -0.40000
C2395       C  0.63009053  0.85214605  0.01258155    -0.12200
C2396       C  0.61116133  0.84864398  0.98971211     0.04800
C2397       C  0.61049883  0.86795702  0.46639193    -0.07500
C2398       C  0.63018774  0.89010541  0.46589148    -0.08300
C2399       C  0.64994515  0.89427458  0.99015601    -0.02800
C2400       C  0.64955422  0.87448756  0.01298401     0.04000
N2401       N  0.66808752  0.87714104  0.03718576     0.66500
H2402       H  0.62926831  0.83779715  0.03065191     0.15400
H2403       H  0.63042519  0.90417848  0.44758932     0.15100
N2404       N  0.59058685  0.86541829  0.44340467     0.74200
O2405       O  0.66608919  0.89823025  0.05350506    -0.39200
O2406       O  0.68412521  0.85695398  0.04413363    -0.39200
O2407       O  0.56550203  0.87432040  0.44647917    -0.39900
O2408       O  0.59869724  0.85651233  0.41927425    -0.40000
C2409       C  0.58767274  0.76849316  0.35791637    -0.12200
C2410       C  0.58685144  0.74693551  0.37844793     0.04800
C2411       C  0.60464268  0.72310921  0.37489138    -0.07500
C2412       C  0.62313825  0.72183816  0.35133911    -0.08300
C2413       C  0.62502008  0.74398770  0.33145159    -0.02800
C2414       C  0.60616931  0.76713376  0.33430130     0.04000
N2415       N  0.60641145  0.79009997  0.31435120     0.66500
H2416       H  0.57391966  0.78664512  0.36032398     0.15400
H2417       H  0.63758752  0.70414320  0.34966161     0.15100
N2418       N  0.60614635  0.70120840  0.39615575     0.74200
O2419       O  0.59839154  0.78610122  0.28886522    -0.39200
O2420       O  0.60934998  0.81498715  0.32334552    -0.39200
O2421       O  0.60916850  0.67589473  0.38849843    -0.39900
O2422       O  0.60926713  0.70743075  0.42227396    -0.40000
C2423       C  0.88324033  0.77645008  0.15569536    -0.12200
C2424       C  0.87207783  0.75123731  0.16645347     0.04800
C2425       C  0.88323377  0.72537984  0.15668592    -0.07500
C2426       C  0.90421306  0.72516381  0.13536856    -0.08300
C2427       C  0.91431560  0.75034381  0.12317505    -0.02800
C2428       C  0.90443339  0.77627940  0.13451566     0.04000
N2429       N  0.91450895  0.80267526  0.12382155     0.66500
H2430       H  0.87492808  0.79639755  0.16323431     0.15400
H2431       H  0.91147968  0.70504600  0.12723837     0.15100
N2432       N  0.87160523  0.69912407  0.16625337     0.74200
O2433       O  0.90269770  0.81382851  0.10235236    -0.39200
O2434       O  0.93231381  0.81663194  0.13818784    -0.39200
O2435       O  0.84641147  0.69256374  0.15980550    -0.39900
O2436       O  0.88742248  0.68117783  0.17822920    -0.40000
C2437       C  0.86850371  0.59412069  0.26824842    -0.12200
C2438       C  0.89624233  0.60357730  0.26247776     0.04800
C2439       C  0.90051611  0.63189113  0.25479574    -0.07500
C2440       C  0.87709981  0.65002200  0.25259723    -0.08300
C2441       C  0.84923615  0.64081450  0.25877345    -0.02800
C2442       C  0.84499779  0.61233246  0.26663278     0.04000
N2443       N  0.81712044  0.60127191  0.27212563     0.66500
H2444       H  0.86505373  0.57219379  0.27371300     0.15400
H2445       H  0.88096974  0.67180115  0.24684405     0.15100
N2446       N  0.92832801  0.64238401  0.24839029     0.74200
O2447       O  0.79734186  0.60528600  0.25431413    -0.39200
O2448       O  0.81323086  0.58429321  0.29260128    -0.39200
O2449       O  0.93326552  0.65336606  0.22424824    -0.39900
O2450       O  0.94644714  0.64479365  0.26816513    -0.40000
C2451       C  0.61171777  0.88280469  0.21519313    -0.12200
C2452       C  0.60112114  0.89206787  0.24170370     0.04800
C2453       C  0.61465693  0.88316515  0.26724036    -0.07500
C2454       C  0.63803736  0.86483419  0.26555326    -0.08300
C2455       C  0.64847077  0.85544408  0.23903666    -0.02800
C2456       C  0.63517085  0.86461407  0.21352793     0.04000
N2457       N  0.64442008  0.85490342  0.18589889     0.66500
H2458       H  0.60174298  0.88992115  0.19555154     0.15400
H2459       H  0.64792198  0.85745242  0.28514933     0.15100
N2460       N  0.60459610  0.89187073  0.29495934     0.74200
O2461       O  0.64781387  0.82892028  0.18134729    -0.39200
O2462       O  0.64571096  0.87185198  0.16506983    -0.39200
O2463       O  0.57830422  0.89225227  0.30036606    -0.39900
O2464       O  0.62202064  0.89636514  0.31500826    -0.40000
C2465       C  0.65637336  0.52786093  0.36736961    -0.12200
C2466       C  0.66620431  0.99995719  0.37514211     0.04800
C2467       C  0.65604317  0.97505892  0.36226861    -0.07500
C2468       C  0.63376228  0.97660467  0.34234613    -0.08300
C2469       C  0.62314035  0.50399327  0.33572891    -0.02800
C2470       C  0.63416120  0.52904691  0.34733808     0.04000
N2471       N  0.62276094  0.55580248  0.33928774     0.66500
H2472       H  0.66400499  0.54735843  0.37664860     0.15400
H2473       H  0.62594806  0.95735210  0.33272427     0.15100
N2474       N  0.66801181  0.94815052  0.36925217     0.74200
O2475       O  0.60188754  0.56584233  0.35285873    -0.39200
O2476       O  0.63609763  0.57113435  0.32174125    -0.39200
O2477       O  0.65197803  0.92753611  0.37479239    -0.39900
O2478       O  0.69455402  0.94445458  0.36809093    -0.40000
C2479       C  0.82928851  0.99653533  0.15149022    -0.12200
C2480       C  0.83214667  0.50570756  0.12524417     0.04800
C2481       C  0.82877237  0.48969613  0.15081082    -0.07500
C2482       C  0.85176195  0.48701501  0.17009838    -0.08300
C2483       C  0.87887701  0.99458909  0.16676354    -0.02800
C2484       C  0.84964676  0.99451747  0.17356710     0.04000
N2485       N  0.84035244  0.99172817  0.20258399     0.66500
H2486       H  0.80689105  0.99589344  0.15686181     0.15400
H2487       H  0.84914657  0.47489016  0.18960931     0.15100
N2488       N  0.80231976  0.47622341  0.15764785     0.74200
O2489       O  0.83690065  0.01340983  0.21780279    -0.39200
O2490       O  0.91351902  0.55260900  0.14656196    -0.39200
O2491       O  0.89750430  0.01752176  0.08057129    -0.39900
O2492       O  0.77938032  0.48995981  0.15649275    -0.40000
C2493       C  0.52306629  0.87834683  0.09751449    -0.12200
C2494       C  0.99560240  0.87190190  0.08596771     0.04800
C2495       C  0.97096284  0.88710887  0.09399873    -0.07500
C2496       C  0.97303598  0.90834063  0.11498694    -0.08300
C2497       C  0.49998619  0.91420459  0.12676989    -0.02800
C2498       C  0.52449507  0.89875923  0.11915651     0.04000
N2499       N  0.55081886  0.90277458  0.13385627     0.66500
H2500       H  0.54191894  0.86604338  0.09288372     0.15400
H2501       H  0.95393261  0.91936176  0.12148456     0.15100
N2502       N  0.94378791  0.88131753  0.08122271     0.74200
O2503       O  0.55764179  0.88627245  0.15392535    -0.39200
O2504       O  0.56919328  0.91929139  0.12356933    -0.39200
O2505       O  0.92133012  0.88363890  0.09586550    -0.39900
O2506       O  0.94186057  0.87688978  0.05461426    -0.40000
C2507       C  0.02726682  0.58853819  0.38917950    -0.12200
C2508       C  0.00152788  0.58330392  0.37470919     0.04800
C2509       C  0.47593085  0.59810422  0.38472501    -0.07500
C2510       C  0.47770509  0.61976391  0.40507943    -0.08300
C2511       C  0.50384265  0.62763121  0.41736665    -0.02800
C2512       C  0.02963053  0.60991027  0.41001491     0.04000
N2513       N  0.05647911  0.61436451  0.42403908     0.66500
H2514       H  0.04600491  0.57650173  0.38356788     0.15400
H2515       H  0.45856245  0.63136438  0.41033038     0.15100
N2516       N  0.44886792  0.59148206  0.37256364     0.74200
O2517       O  0.05735028  0.62017581  0.45042761    -0.39200
O2518       O  0.07943724  0.60947271  0.41092739    -0.39200
O2519       O  0.43563863  0.56983905  0.38085129    -0.39900
O2520       O  0.43678202  0.60883198  0.35608670    -0.40000
O2521       O  0.96562245  0.52431321  0.71595176    -0.88300
C2522       C  0.96001030  0.50983854  0.80284343     0.87700
Mg2523     Mg  0.97288117  0.98820027  0.68493510     1.58100
O2524       O  0.52256947  0.54022896  0.78075689    -0.88000
O2525       O  0.98518823  0.56382396  0.72992578    -0.75400
C2526       C  0.57954916  0.91482321  0.74109465     0.92800
O2527       O  0.93811615  0.96609159  0.74603523    -0.75200
O2528       O  0.55845422  0.91197274  0.72428326    -0.82700
Mg2529     Mg  0.93222941  0.51740334  0.74708287     1.58000
C2530       C  0.59879699  0.50615415  0.81393511     0.92700
O2531       O  0.91740859  0.56287629  0.74881895    -0.81000
H2532       H  0.54386506  0.57181581  0.76223423    -0.06300
C2533       C  0.52367445  0.95136435  0.79303907     0.87600
O2534       O  0.51927786  0.99826193  0.68727068    -0.75500
O2535       O  0.96245188  0.52437529  0.78101238    -0.88200
O2536       O  0.57616923  0.51880472  0.82178515    -0.81000
C2537       C  0.00351174  0.56619956  0.84924026     0.92800
C2538       C  0.92132828  0.58547590  0.76281816     0.92700
Mg2539     Mg  0.56755041  0.98200300  0.75788713     1.58000
O2540       O  0.58216469  0.93605372  0.75746453    -0.81000
O2541       O  0.56005081  0.53303552  0.75400021    -0.75200
O2542       O  0.98623852  0.57083780  0.82863515    -0.81000
O2543       O  0.90049693  0.51183302  0.71121374    -0.82800
O2544       O  0.51554594  0.92954989  0.67402859    -0.81100
C2545       C  0.54223243  0.54938474  0.76586726     0.87100
O2546       O  0.53821965  0.97545775  0.72314279    -0.88200
O2547       O  0.53363929  0.97489845  0.78792928    -0.88300
O2548       O  0.51579810  0.93492228  0.77309189    -0.75400
Mg2549     Mg  0.98511032  0.56408000  0.77933808     1.58000
O2550       O  0.52026852  0.54619767  0.84776506    -0.82800
H2551       H  0.97858284  0.55374468  0.68813758    -0.06500
O2552       O  0.97596753  0.95857340  0.71991374    -0.88000
H2553       H  0.95379994  0.92715987  0.73766010    -0.06300
H2554       H  0.56156181  0.99826190  0.69584530    -0.06500
C2555       C  0.95584155  0.94959705  0.73426983     0.87100
C2556       C  0.97622564  0.54748603  0.71036588     0.87700
C2557       C  0.54072886  0.99067001  0.70182137     0.87700
H2558       H  0.52115042  0.94469964  0.81525671    -0.06500
O2559       O  0.98153190  0.50238620  0.81740179    -0.75500
Mg2560     Mg  0.51631154  0.93563452  0.72350886     1.58000
H2561       H  0.93915639  0.50274567  0.80931381    -0.06500
C2562       C  0.90217144  0.99403946  0.68422493     0.92700
O2563       O  0.98106395  0.95320838  0.65247147    -0.82700
C2564       C  0.49833973  0.93446465  0.65343989     0.92800
O2565       O  0.94370333  0.58953652  0.77760211    -0.82700
Mg2566     Mg  0.52782017  0.51111645  0.81584885     1.58200
O2567       O  0.92524356  0.98182705  0.67719106    -0.81000
O2568       O  0.59854618  0.98761162  0.79428680    -0.82700
O2569       O  0.50273590  0.77515802  0.54871262    -0.88300
C2570       C  0.93450373  0.75483262  0.00159179     0.87700
Mg2571     Mg  0.53675415  0.80096209  0.53296356     1.58100
O2572       O  0.98546850  0.69896095  0.50814213    -0.88000
O2573       O  0.99942673  0.73100550  0.56662038    -0.75400
C2574       C  0.56886651  0.75045006  0.90186263     0.92800
O2575       O  0.97480749  0.81187494  0.50160324    -0.75200
O2576       O  0.56833381  0.77379192  0.91537567    -0.82700
Mg2577     Mg  0.96338858  0.78985002  0.54396085     1.58000
C2578       C  0.50661743  0.65430632  0.93313489     0.92700
O2579       O  0.94697551  0.77237790  0.58695714    -0.81000
H2580       H  0.50427645  0.67434157  0.53236604    -0.06300
C2581       C  0.99004701  0.74614041  0.93415197     0.87600
O2582       O  0.56313353  0.76223452  0.52046727    -0.75500
O2583       O  0.95183914  0.75169919  0.52186556    -0.88200
O2584       O  0.98510890  0.66125955  0.94869687    -0.81000
C2585       C  0.91353222  0.67325305  0.00476713     0.92800
C2586       C  0.93356672  0.75080723  0.59603211     0.92700
Mg2587     Mg  0.53986069  0.71097971  0.95401448     1.58000
O2588       O  0.55570513  0.72874196  0.91097258    -0.81000
O2589       O  0.52883245  0.68891711  0.99655666    -0.75200
O2590       O  0.92052403  0.68851126  0.52719323    -0.81000
O2591       O  0.97541902  0.83033711  0.56732810    -0.82800
O2592       O  0.58142349  0.81264404  0.97067718    -0.81100
C2593       C  0.50403716  0.68745362  0.51334890     0.87100
O2594       O  0.55135333  0.74902018  0.97605487    -0.88200
O2595       O  0.99717907  0.72744849  0.95107720    -0.88300
O2596       O  0.50295677  0.76956444  0.93198864    -0.75400
Mg2597     Mg  0.96014364  0.71256708  0.54422573     1.58000
O2598       O  0.92887174  0.67346049  0.98240890    -0.82800
H2599       H  0.52720229  0.75935810  0.57985064    -0.06500
O2600       O  0.51746971  0.80124948  0.99078682    -0.88000
H2601       H  0.99369933  0.82847112  0.96929539    -0.06300
H2602       H  0.58120612  0.73016358  0.49830190    -0.06500
C2603       C  0.99444338  0.81487452  0.98794093     0.87100
C2604       C  0.50932853  0.75622567  0.56560329     0.87700
C2605       C  0.56544560  0.74672705  0.49846165     0.87700
H2606       H  0.97224323  0.74251363  0.91996139    -0.06500
O2607       O  0.93700738  0.73960557  0.97937997    -0.75500
Mg2608     Mg  0.54225546  0.78820097  0.95407453     1.58000
H2609       H  0.91871532  0.77135879  0.00185578    -0.06500
C2610       C  0.99726427  0.84610403  0.56575583     0.92700
O2611       O  0.57253341  0.82809825  0.51644214    -0.83100
C2612       C  0.58643922  0.82860323  0.49306769     0.92800
O2613       O  0.93387112  0.72750670  0.58244749    -0.82700
Mg2614     Mg  0.96381967  0.70117433  0.96654163     1.58200
O2615       O  0.51603475  0.84132376  0.55125802    -0.81000
O2616       O  0.52799320  0.67055303  0.93058089    -0.82700
O2617       O  0.71217418  0.77414594  0.71726339    -0.88300
C2618       C  0.79355145  0.79840821  0.73349223     0.87700
Mg2619     Mg  0.68194422  0.76771246  0.75134747     1.58100
O2620       O  0.78501284  0.72753728  0.71320999    -0.88000
O2621       O  0.73107846  0.75229938  0.68070065    -0.75400
C2622       C  0.74412891  0.68339731  0.84476313     0.92800
O2623       O  0.73512522  0.81295336  0.76834088    -0.75200
O2624       O  0.72635587  0.70357088  0.84411109    -0.82700
Mg2625     Mg  0.73515109  0.81327742  0.71885279     1.58000
C2626       C  0.82830969  0.66547969  0.75940398     0.92700
O2627       O  0.73634505  0.81968174  0.66969247    -0.81000
H2628       H  0.77275818  0.69853269  0.68471533    -0.06300
C2629       C  0.79028997  0.74019302  0.80034212     0.87600
O2630       O  0.68861636  0.71973367  0.74955555    -0.75500
O2631       O  0.77411851  0.78984098  0.71801080    -0.88200
O2632       O  0.83247154  0.68802961  0.74529164    -0.81000
C2633       C  0.84996355  0.75490462  0.68625580     0.92800
C2634       C  0.75388915  0.81570245  0.64915756     0.92700
Mg2635     Mg  0.76444136  0.68707519  0.77553339     1.58000
O2636       O  0.76186945  0.67909262  0.82446787    -0.81000
O2637       O  0.76522889  0.68784601  0.72621109    -0.75200
O2638       O  0.82768083  0.76787388  0.67798930    -0.81000
O2639       O  0.69386262  0.83852529  0.71993996    -0.82800
O2640       O  0.67232019  0.73307335  0.81692253    -0.81100
C2641       C  0.77460617  0.70445108  0.70706808     0.87100
O2642       O  0.72553699  0.71090759  0.77659984    -0.88200
O2643       O  0.78756961  0.72640468  0.77810361    -0.88300
O2644       O  0.76889299  0.74774036  0.81501473    -0.75400
Mg2645     Mg  0.77921085  0.76112867  0.68270049     1.58000
O2646       O  0.85034006  0.74021061  0.70903054    -0.82800
H2647       H  0.68867842  0.75290093  0.68887783    -0.06500
O2648       O  0.71566421  0.77324290  0.78195063    -0.88000
H2649       H  0.72866984  0.80232880  0.81012093    -0.06300
H2650       H  0.70343842  0.68031954  0.75739963    -0.06500
C2651       C  0.72630382  0.79631925  0.78776352     0.87100
C2652       C  0.70961386  0.75976954  0.69536950     0.87700
C2653       C  0.70576195  0.70262523  0.76136340     0.87700
H2654       H  0.81130917  0.74654480  0.80709361    -0.06500
O2655       O  0.81056280  0.78155157  0.74579963    -0.75500
Mg2656     Mg  0.72082182  0.73948276  0.81236701     1.58000
H2657       H  0.79559357  0.82076290  0.73733973    -0.06500
C2658       C  0.67265391  0.83578611  0.73667189     0.92700
O2659       O  0.64982983  0.76178869  0.78697205    -0.82700
C2660       C  0.65010522  0.74652899  0.80931753     0.92800
O2661       O  0.77298972  0.79679678  0.65068062    -0.82700
Mg2662     Mg  0.81814031  0.73378815  0.74450722     1.58200
O2663       O  0.66930698  0.81410892  0.75231610    -0.81000
O2664       O  0.80586986  0.66169473  0.77425536    -0.82700
O2665       O  0.79167193  0.97869773  0.52837101    -0.88300
C2666       C  0.70553187  0.97341936  0.53732635     0.87700
Mg2667     Mg  0.80941896  0.52328451  0.53504811     1.58100
O2668       O  0.73082133  0.96094141  0.97048522    -0.88000
O2669       O  0.78673633  0.94109171  0.50190256    -0.75400
C2670       C  0.73951456  0.59951512  0.93525019     0.92800
O2671       O  0.74527933  0.52249962  0.56912535    -0.75200
O2672       O  0.75342126  0.60270999  0.95836925    -0.82700
Mg2673     Mg  0.76187297  0.97333501  0.56318033     1.58000
C2674       C  0.68665884  0.00014365  0.90199863     0.92700
O2675       O  0.77046975  0.92611820  0.57033187    -0.81000
H2676       H  0.75458354  0.93921939  0.94268918    -0.06300
C2677       C  0.69751836  0.54201257  0.98334222     0.87600
O2678       O  0.81132660  0.52294519  0.98267966    -0.75500
O2679       O  0.72960762  0.96454911  0.53196882    -0.88200
O2680       O  0.68306405  0.98204925  0.92196969    -0.81000
C2681       C  0.67065725  0.91729772  0.48661672     0.92800
C2682       C  0.75927785  0.90296055  0.56246029     0.92700
Mg2683     Mg  0.73865829  0.52943803  0.93534658     1.58000
O2684       O  0.72794686  0.57609156  0.92894013    -0.81000
O2685       O  0.75244191  0.98115335  0.93446551    -0.75200
O2686       O  0.69374017  0.91468422  0.50046218    -0.81000
O2687       O  0.79642578  0.98212710  0.59582201    -0.82800
O2688       O  0.80563155  0.58871615  0.99738482    -0.81100
C2689       C  0.74602262  0.95942206  0.94896041     0.87100
O2690       O  0.77051178  0.53851554  0.96684862    -0.88200
O2691       O  0.70856868  0.52276687  0.96942908    -0.88300
O2692       O  0.71239296  0.56110305  0.99512835    -0.75400
Mg2693     Mg  0.73904388  0.93103916  0.50201449     1.58000
O2694       O  0.66644398  0.93895146  0.97299305    -0.82800
H2695       H  0.82493698  0.95862322  0.51127187    -0.06500
O2696       O  0.76817765  0.54334635  0.53427739    -0.88000
H2697       H  0.74285124  0.56447092  0.56113111    -0.06300
H2698       H  0.80226127  0.52796870  0.94039416    -0.06500
C2699       C  0.75198197  0.54445794  0.55508928     0.87100
C2700       C  0.80214845  0.95940570  0.51413145     0.87700
C2701       C  0.79490766  0.53002194  0.96231234     0.87700
H2702       H  0.67470903  0.54228021  0.98605185    -0.06500
O2703       O  0.68877800  0.98133921  0.51761318    -0.75500
Mg2704     Mg  0.76008927  0.57226387  0.99580705     1.58000
H2705       H  0.69882734  0.97525088  0.55954160    -0.06500
C2706       C  0.81072210  0.50289912  0.60383594     0.92700
O2707       O  0.83169804  0.56607115  0.53462050    -0.82700
C2708       C  0.82726474  0.58694384  0.01360402     0.92800
O2709       O  0.74622928  0.90039125  0.53876714    -0.82700
Mg2710     Mg  0.68956761  0.98133342  0.97131743     1.58200
O2711       O  0.81439392  0.52214286  0.58497929    -0.81000
O2712       O  0.70439516  0.52072193  0.90308010    -0.82700
C2713       C  0.77231163  0.85432998  0.57915805    -0.12200
C2714       C  0.75790095  0.87978925  0.58352542     0.04800
C2715       C  0.74027906  0.88276014  0.60774151    -0.07500
C2716       C  0.73779681  0.86074794  0.62745033    -0.08300
C2717       C  0.75327018  0.83559727  0.62427355    -0.02800
C2718       C  0.77029966  0.83219650  0.59929611     0.04000
N2719       N  0.78539328  0.80652632  0.59383094     0.66500
H2720       H  0.78519759  0.85167438  0.56009145     0.15400
H2721       H  0.72459022  0.86411032  0.64617509     0.15100
N2722       N  0.72465250  0.90818535  0.61264776     0.74200
O2723       O  0.77221698  0.78337300  0.59357836    -0.39200
O2724       O  0.81087218  0.80732455  0.58536769    -0.39200
O2725       O  0.69785826  0.90750445  0.61354609    -0.39900
O2726       O  0.73752462  0.93011517  0.62067036    -0.40000
C2727       C  0.74023771  0.67108370  0.89707502    -0.12200
C2728       C  0.74245581  0.66245945  0.86831374     0.04800
C2729       C  0.74215873  0.63335260  0.86195494    -0.07500
C2730       C  0.74060160  0.61372312  0.88428840    -0.08300
C2731       C  0.73913949  0.62210532  0.91311939    -0.02800
C2732       C  0.73905736  0.65116964  0.91949184     0.04000
N2733       N  0.73720968  0.66077030  0.94844145     0.66500
H2734       H  0.74000055  0.69333282  0.90218279     0.15400
H2735       H  0.74066611  0.59151749  0.87894984     0.15100
N2736       N  0.74234934  0.62329728  0.83289818     0.74200
O2737       O  0.75955863  0.66362562  0.96308199    -0.39200
O2738       O  0.71404478  0.67052802  0.95776958    -0.39200
O2739       O  0.75713613  0.60210467  0.82624488    -0.39900
O2740       O  0.72501580  0.63313558  0.81482770    -0.40000
C2741       C  0.85965377  0.61657099  0.98507250    -0.12200
C2742       C  0.84853295  0.60960945  0.01197215     0.04800
C2743       C  0.85942189  0.62377080  0.53891060    -0.07500
C2744       C  0.87992875  0.64503707  0.53547553    -0.08300
C2745       C  0.88953656  0.65286543  0.00641262    -0.02800
C2746       C  0.87992803  0.63787555  0.98197786     0.04000
N2747       N  0.89055575  0.64376860  0.95382787     0.66500
H2748       H  0.85261886  0.60519520  0.96622635     0.15400
H2749       H  0.88716959  0.65633775  0.55426068     0.15100
N2750       N  0.84774253  0.61849802  0.56681652     0.74200
O2751       O  0.90247286  0.62455871  0.93951227    -0.39200
O2752       O  0.88500587  0.66702868  0.94197971    -0.39200
O2753       O  0.86393378  0.61652646  0.58828345    -0.39900
O2754       O  0.82116405  0.61875041  0.57053436    -0.40000
C2755       C  0.62895557  0.85307365  0.51247452    -0.12200
C2756       C  0.60951305  0.84949223  0.49007868     0.04800
C2757       C  0.61213695  0.86771261  0.96653168    -0.07500
C2758       C  0.63115939  0.89041616  0.96707539    -0.08300
C2759       C  0.64934682  0.89421641  0.48860663    -0.02800
C2760       C  0.64892808  0.87498449  0.51194898     0.04000
N2761       N  0.66803018  0.87772342  0.53569333     0.66500
H2762       H  0.62823287  0.83907926  0.53083410     0.15400
H2763       H  0.63141603  0.90491240  0.94911828     0.15100
N2764       N  0.59290156  0.86514577  0.94297759     0.74200
O2765       O  0.66706127  0.89932903  0.55139321    -0.39200
O2766       O  0.68343716  0.85718351  0.54301801    -0.39200
O2767       O  0.57138925  0.88094047  0.94153717    -0.39900
O2768       O  0.59925526  0.84965825  0.92196625    -0.40000
C2769       C  0.59015818  0.77129483  0.85761145    -0.12200
C2770       C  0.58665226  0.74785600  0.87563316     0.04800
C2771       C  0.60158616  0.72268942  0.86913185    -0.07500
C2772       C  0.62034298  0.72205867  0.84573335    -0.08300
C2773       C  0.62493548  0.74592817  0.82860879    -0.02800
C2774       C  0.60872797  0.77047362  0.83404468     0.04000
N2775       N  0.61227083  0.79539294  0.81711882     0.66500
H2776       H  0.57870099  0.79059125  0.86210203     0.15400
H2777       H  0.63280390  0.70321701  0.84200586     0.15100
N2778       N  0.60001567  0.69834941  0.88734702     0.74200
O2779       O  0.60205624  0.79639984  0.79213054    -0.39200
O2780       O  0.62136782  0.81767627  0.82861947    -0.39200
O2781       O  0.59761341  0.67417825  0.87638033    -0.39900
O2782       O  0.60611136  0.70042795  0.91361173    -0.40000
C2783       C  0.88230075  0.77963170  0.65215585    -0.12200
C2784       C  0.87523581  0.75508966  0.66727437     0.04800
C2785       C  0.88998249  0.72990998  0.66103665    -0.07500
C2786       C  0.90985066  0.72924867  0.63863578    -0.08300
C2787       C  0.91571107  0.75339392  0.62225213    -0.02800
C2788       C  0.90240999  0.77913143  0.62992019     0.04000
N2789       N  0.90733686  0.80452084  0.61408188     0.66500
H2790       H  0.87112216  0.79907552  0.65671307     0.15400
H2791       H  0.91993428  0.70941184  0.63332052     0.15100
N2792       N  0.88316670  0.70420898  0.67548329     0.74200
O2793       O  0.89863367  0.80657438  0.58857750    -0.39200
O2794       O  0.91606797  0.82624256  0.62691090    -0.39200
O2795       O  0.86223220  0.68968545  0.66731385    -0.39900
O2796       O  0.89979332  0.69453006  0.69427076    -0.40000
C2797       C  0.86976089  0.59655125  0.76361957    -0.12200
C2798       C  0.89796545  0.60640192  0.76274514     0.04800
C2799       C  0.90289605  0.63553033  0.76068878    -0.07500
C2800       C  0.87981038  0.65407546  0.75871432    -0.08300
C2801       C  0.85152465  0.64430286  0.75967144    -0.02800
C2802       C  0.84651076  0.61507148  0.76226341     0.04000
N2803       N  0.81821591  0.60370865  0.76256925     0.66500
H2804       H  0.86575410  0.57412233  0.76508730     0.15400
H2805       H  0.88410257  0.67644719  0.75713897     0.15100
N2806       N  0.93115056  0.64656545  0.75986517     0.74200
O2807       O  0.80017692  0.61176027  0.74429696    -0.39200
O2808       O  0.81231902  0.58307214  0.77859116    -0.39200
O2809       O  0.94070748  0.65694742  0.73689038    -0.39900
O2810       O  0.94465257  0.65011209  0.78294266    -0.40000
C2811       C  0.61410941  0.88598491  0.71396366    -0.12200
C2812       C  0.60275856  0.89388208  0.74061444     0.04800
C2813       C  0.61572103  0.88395950  0.76605169    -0.07500
C2814       C  0.63908847  0.86567339  0.76411174    -0.08300
C2815       C  0.65012019  0.85741389  0.73744768    -0.02800
C2816       C  0.63766009  0.86796845  0.71209205     0.04000
N2817       N  0.64788946  0.85980861  0.68434146     0.66500
H2818       H  0.60465989  0.89401173  0.69440948     0.15400
H2819       H  0.64845778  0.85740703  0.78360125     0.15100
N2820       N  0.60509151  0.89159073  0.79388412     0.74200
O2821       O  0.64940369  0.83409147  0.67770233    -0.39200
O2822       O  0.65224652  0.87826308  0.66534460    -0.39200
O2823       O  0.57870048  0.89172272  0.79878211    -0.39900
O2824       O  0.62211678  0.89549901  0.81440558    -0.40000
C2825       C  0.65321383  0.52823870  0.86965513    -0.12200
C2826       C  0.66694286  0.00020873  0.87716456     0.04800
C2827       C  0.65583551  0.97514230  0.86528987    -0.07500
C2828       C  0.63424710  0.97677485  0.84453091    -0.08300
C2829       C  0.62383691  0.50624146  0.83319210    -0.02800
C2830       C  0.63185211  0.53032191  0.84882416     0.04000
N2831       N  0.61831776  0.55691778  0.84400900     0.66500
H2832       H  0.65878656  0.54683297  0.88188427     0.15400
H2833       H  0.62552269  0.95747549  0.83581663     0.15100
N2834       N  0.66595964  0.94798525  0.87419961     0.74200
O2835       O  0.60755237  0.57026108  0.86472631    -0.39200
O2836       O  0.61872776  0.56796893  0.81939367    -0.39200
O2837       O  0.64869968  0.92794924  0.87789952    -0.39900
O2838       O  0.69229643  0.94332545  0.87621457    -0.40000
C2839       C  0.86422115  0.00764765  0.61430656    -0.12200
C2840       C  0.83063321  0.50094891  0.62844364     0.04800
C2841       C  0.84459735  0.47524976  0.63460824    -0.07500
C2842       C  0.86708713  0.47455677  0.65431446    -0.08300
C2843       C  0.87922707  0.99548892  0.66259248    -0.02800
C2844       C  0.88579037  0.00424384  0.63446702     0.04000
N2845       N  0.91439374  0.01036969  0.62613320     0.66500
H2846       H  0.87007923  0.01392648  0.59274331     0.15400
H2847       H  0.87825955  0.45491514  0.65792322     0.15100
N2848       N  0.83744536  0.44999429  0.61958069     0.74200
O2849       O  0.92934729  0.99147259  0.61455806    -0.39200
O2850       O  0.85027064  0.56446145  0.69104814    -0.39200
O2851       O  0.79467196  0.96812530  0.67557801    -0.39900
O2852       O  0.81677378  0.43519118  0.62798440    -0.40000
C2853       C  0.52156799  0.88007355  0.59798197    -0.12200
C2854       C  0.99868153  0.87198651  0.58361018     0.04800
C2855       C  0.97486401  0.88950110  0.58848209    -0.07500
C2856       C  0.97636499  0.91067515  0.60958978    -0.08300
C2857       C  0.49884466  0.91590112  0.62760199    -0.02800
C2858       C  0.52334613  0.90069483  0.61943927     0.04000
N2859       N  0.55009962  0.90543988  0.63316650     0.66500
H2860       H  0.54043473  0.86797355  0.59288875     0.15400
H2861       H  0.95772055  0.92344147  0.61367308     0.15100
N2862       N  0.94907687  0.88600640  0.57238723     0.74200
O2863       O  0.56197008  0.88580526  0.64692883    -0.39200
O2864       O  0.56298557  0.92847616  0.62954960    -0.39200
O2865       O  0.92526927  0.89004238  0.58418935    -0.39900
O2866       O  0.95005059  0.88137052  0.54575931    -0.40000
C2867       C  0.02866949  0.59104329  0.88902770    -0.12200
C2868       C  0.00303402  0.58517744  0.87466652     0.04800
C2869       C  0.47666039  0.59908514  0.88334686    -0.07500
C2870       C  0.47888729  0.62066165  0.90371861    -0.08300
C2871       C  0.50517352  0.62798230  0.91599124    -0.02800
C2872       C  0.03048496  0.61239068  0.90992283     0.04000
N2873       N  0.05722034  0.61747897  0.92395484     0.66500
H2874       H  0.04771505  0.57955417  0.88326312     0.15400
H2875       H  0.45997091  0.63253808  0.90915974     0.15100
N2876       N  0.44938004  0.59274139  0.87138089     0.74200
O2877       O  0.05793929  0.62331145  0.95034379    -0.39200
O2878       O  0.08029299  0.61298810  0.91089673    -0.39200
O2879       O  0.43916339  0.56828180  0.87383209    -0.39900
O2880       O  0.43443192  0.61208811  0.86056345    -0.40000
loop_ 
_geom_bond_atom_site_label_1 
_geom_bond_atom_site_label_2 
_geom_bond_distance 
_geom_bond_site_symmetry_2 
_ccdc_geom_bond_type 
O1           C36   1.235       .  S
O1           Mg9   2.169       .  S
O1         Mg723   2.155   1_545  S
C2           O15   1.235       .  S
C2           O39   1.270   1_545  A
C2           H41   1.080   1_545  S
Mg3          O32   2.159       .  S
Mg3         O721   2.161       .  S
Mg3          O47   2.324       .  S
Mg3          O43   2.283       .  S
Mg3        O1454   2.307       .  S
O4           C25   1.236       .  S
O4          Mg46   2.155       .  S
O4        Mg1469   2.165   1_455  S
O5           C36   1.269       .  A
O5          Mg29   2.298       .  S
C6            O8   1.274       .  A
C6           O20   1.271       .  A
C6          C292   1.476       .  S
O7           C35   1.269       .  A
O7         Mg729   2.297       .  S
O8          Mg40   2.292       .  S
Mg9          O15   2.159       .  S
Mg9          O23   2.279       .  S
Mg9          O11   2.284       .  S
Mg9         O727   2.299   1_545  S
C10          O16   1.275       .  A
C10         O768   1.268   1_545  A
C10         C309   1.478       .  S
O11          C18   1.273       .  A
H12          C25   1.081       .  S
C13          O27   1.236       .  S
C13          O28   1.272       .  A
C13          H38   1.089       .  S
O14          C37   1.270       .  A
O14       Mg1443   2.305   1_455  S
O15         Mg29   2.172       .  S
O16         Mg46   2.324       .  S
C17          O22   1.279       .  A
C17        O1470   1.274       .  A
C17         C348   1.492       .  S
C18          O45   1.275       .  A
C18         C278   1.484       .  S
Mg19         O26   2.161       .  S
Mg19         O27   2.149       .  S
Mg19         O20   2.288       .  S
Mg19         O48   2.267       .  S
Mg19        O741   2.306       .  S
O21          C25   1.272       .  A
O21        Mg739   2.309   1_545  S
O22         Mg29   2.333       .  S
O23         C762   1.272   1_545  A
O24          C44   1.279       .  A
O24         Mg40   2.330       .  S
O26          C37   1.234       .  S
O26         Mg40   2.150       .  S
O27        Mg766   2.164       .  S
O28         Mg40   2.316       .  S
Mg29       O1444   2.159       .  S
Mg29         O45   2.292       .  S
O30        C1457   1.273       .  A
O30         Mg46   2.266       .  S
H31          C36   1.084       .  S
O32          C35   1.235       .  S
O32       Mg1480   2.154       .  S
H33          C35   1.081       .  S
H34          C37   1.080       .  S
O39       Mg1486   2.304   1_565  S
Mg40       O1472   2.157   1_455  S
C42          O47   1.276       .  A
C42         O743   1.271       .  A
C42         C323   1.479       .  S
O43        C1484   1.275       .  A
C44        O1483   1.276   1_455  A
C44         C337   1.495       .  S
Mg46        O747   2.162   1_545  S
Mg46       O1479   2.304   1_445  S
O48         C730   1.270       .  A
O49          C84   1.234       .  S
O49         Mg51   2.143       .  S
O49       Mg1497   2.157   1_455  S
C50         O423   1.235       .  S
C50          O87   1.269       .  A
C50          H89   1.081       .  S
Mg51        O440   2.172   1_554  S
Mg51         O95   2.317       .  S
Mg51         O91   2.251       .  S
Mg51         O62   2.295       .  S
O52        C1513   1.235       .  S
O52         Mg77   2.164       .  S
O52        Mg454   2.159   1_554  S
O53        C1524   1.269       .  A
O53         Mg77   2.299       .  S
C54          O56   1.274       .  A
C54          O68   1.274       .  A
C54         C250   1.479       .  S
O55         C443   1.269   1_554  A
O55         Mg57   2.296       .  S
O56         Mg88   2.279       .  S
Mg57         O63   2.158       .  S
Mg57       O1489   2.157       .  S
Mg57         O71   2.286       .  S
Mg57         O59   2.294       .  S
C58          O96   1.274       .  A
C58        O1504   1.274   1_455  A
C58         C351   1.492       .  S
O59          C66   1.274       .  A
H60          C73   1.085       .  S
C61          O75   1.234       .  S
C61        O1516   1.268       .  A
C61          H86   1.082       .  S
O62          C85   1.269   1_554  A
O63         C410   1.235       .  S
O63         Mg77   2.163       .  S
O64        C1498   1.275       .  A
O64         Mg94   2.309       .  S
C65          O78   1.270       .  A
C65         O430   1.275       .  A
C65         C225   1.479       .  S
C66          O93   1.276       .  A
C66         C267   1.486       .  S
Mg67         O74   2.156       .  S
Mg67       O1515   2.151       .  S
Mg67         O68   2.293       .  S
Mg67         O69   2.302       .  S
Mg67         O96   2.291       .  S
O69         C433   1.270       .  A
O70         C425   1.278       .  A
O70         Mg77   2.336       .  S
O71          C90   1.274       .  A
O72         C452   1.275       .  A
O72         Mg88   2.301       .  S
C73        O1492   1.235   1_455  S
C73         O429   1.269   1_554  A
O74         C445   1.235       .  S
O74         Mg88   2.173       .  S
O75         Mg94   2.139       .  S
O75       Mg1507   2.154       .  S
O76        C1501   1.267   1_455  A
O76         Mg88   2.290       .  S
Mg77         O93   2.282       .  S
O78         Mg94   2.245       .  S
H79          C84   1.083       .  S
O80        C1523   1.235   1_455  S
O80         Mg88   2.157       .  S
O80        Mg411   2.169       .  S
H81          C83   1.083       .  S
H82          C85   1.081       .  S
C83        O1520   1.235       .  S
C83         O415   1.270       .  A
C84        O1493   1.269   1_455  A
C85         O434   1.235       .  S
O87         Mg94   2.295       .  S
C90        O1535   1.276       .  A
C90         C334   1.491       .  S
O91          C92   1.271   1_554  A
C92         O432   1.277       .  A
C92         C236   1.477       .  S
Mg94        O412   2.170       .  S
O95        C1530   1.277   1_455  A
O97         C132   1.235       .  S
O97         Mg99   2.158       .  S
O97        Mg105   2.153       .  S
C98         O111   1.235       .  S
C98         O135   1.270       .  A
C98         H137   1.081       .  S
Mg99        O128   2.157       .  S
Mg99        O143   2.296       .  S
Mg99        O139   2.270       .  S
Mg99        O110   2.299       .  S
O100        C121   1.235       .  S
O100       Mg142   2.162       .  S
O100       Mg125   2.156       .  S
O101        C132   1.270       .  A
O101       Mg125   2.307       .  S
C102        O104   1.274       .  A
C102        O116   1.278       .  A
C102        C208   1.492       .  S
O103        C131   1.270       .  A
O103       Mg105   2.307       .  S
O104       Mg136   2.285       .  S
Mg105       O111   2.148       .  S
Mg105       O119   2.283       .  S
Mg105       O107   2.311       .  S
C106        O144   1.274       .  A
C106        O112   1.272       .  A
C106        C281   1.483       .  S
O107        C114   1.278       .  A
H108        C121   1.084       .  S
C109        O123   1.234       .  S
C109        O124   1.268       .  A
C109        H134   1.081       .  S
O110        C133   1.270       .  A
O111       Mg125   2.158       .  S
O112       Mg142   2.280       .  S
C113        O126   1.269       .  A
C113        O118   1.276       .  A
C113        C264   1.481       .  S
C114        O141   1.273       .  A
C114        C197   1.494       .  S
Mg115       O122   2.146       .  S
Mg115       O123   2.165       .  S
Mg115       O116   2.310       .  S
Mg115       O117   2.299       .  S
Mg115       O144   2.289       .  S
O117        C121   1.269       .  A
O118       Mg125   2.313       .  S
O119        C138   1.273       .  A
O120        C140   1.275       .  A
O120       Mg136   2.297       .  S
O122        C133   1.235       .  S
O122       Mg136   2.161       .  S
O123       Mg142   2.144       .  S
O124       Mg136   2.295       .  S
Mg125       O141   2.282       .  S
O126       Mg142   2.251       .  S
H127        C132   1.081       .  S
O128        C131   1.235       .  S
O128       Mg136   2.159       .  S
H129        C131   1.087       .  S
H130        C133   1.081       .  S
O135       Mg142   2.298       .  S
C138        O143   1.274       .  A
C138        C295   1.486       .  S
O139        C140   1.270       .  A
C140        C253   1.491       .  S
O145        C180   1.236       .  S
O145       Mg153   2.153       .  S
O145       Mg867   2.157       .  S
C146        O159   1.234       .  S
C146        O183   1.269       .  A
C146        H185   1.087       .  S
Mg147       O176   2.163       .  S
Mg147       O865   2.150   1_545  S
Mg147       O191   2.306       .  S
Mg147       O187   2.279       .  S
Mg147       O518   2.303   1_554  S
O148        C169   1.234       .  S
O148       Mg190   2.171       .  S
O148       Mg533   2.154       .  S
O149        C180   1.270       .  A
O149       Mg173   2.300       .  S
C150        O152   1.272       .  A
C150        O164   1.274       .  A
C150        C211   1.483       .  S
O151        C179   1.269       .  A
O151       Mg873   2.300   1_545  S
O152       Mg184   2.289       .  S
Mg153       O159   2.154       .  S
Mg153       O167   2.272       .  S
Mg153       O155   2.300       .  S
Mg153       O871   2.304       .  S
C154        O160   1.279       .  A
C154        O912   1.271       .  A
C154        C306   1.483       .  S
O155        C162   1.275       .  A
H156        C169   1.081       .  S
C157        O171   1.236       .  S
C157        O172   1.271       .  A
C157        H182   1.081       .  S
O158        C181   1.269       .  A
O158       Mg507   2.300       .  S
O159       Mg173   2.167       .  S
O160       Mg190   2.338       .  S
C161        O166   1.272   1_556  A
C161        O534   1.276       .  A
C161        C239   1.489       .  S
C162        O189   1.271       .  A
C162        C194   1.480       .  S
Mg163       O170   2.146       .  S
Mg163       O171   2.154       .  S
Mg163       O164   2.297       .  S
Mg163       O192   2.254       .  S
Mg163       O885   2.301   1_545  S
O165        C169   1.269       .  A
O165       Mg883   2.299       .  S
O166       Mg173   2.279       .  S
O167        C906   1.272       .  A
O168        C188   1.272       .  A
O168       Mg184   2.274       .  S
O170        C181   1.234       .  S
O170       Mg184   2.159       .  S
O171       Mg910   2.158   1_545  S
O172       Mg184   2.303       .  S
Mg173       O508   2.156   1_554  S
Mg173       O189   2.280       .  S
O174        C521   1.276       .  A
O174       Mg190   2.291       .  S
H175        C180   1.081       .  S
O176        C179   1.234       .  S
O176       Mg544   2.153   1_554  S
H177        C179   1.081       .  S
H178        C181   1.084       .  S
O183       Mg550   2.302   1_554  S
Mg184       O536   2.159       .  S
C186        O191   1.277       .  A
C186        O887   1.271   1_545  A
C186        C320   1.481   1_545  S
O187        C548   1.273       .  A
C188        O547   1.275       .  A
C188        C222   1.485       .  S
Mg190       O891   2.156       .  S
Mg190       O543   2.300       .  S
O192        C874   1.271   1_545  A
C193        H200   1.083       .  S
C193        C194   1.403       .  A
C193        C198   1.413       .  A
C194        C195   1.409       .  A
C195        C196   1.396       .  A
C195        N202   1.433       .  S
C196        H201   1.084       .  S
C196        C197   1.406       .  A
C197        C198   1.421       .  A
C198        N199   1.433       .  S
N199        O203   1.262       .  A
N199        O204   1.262       .  A
N202        O206   1.262       .  A
N202        O205   1.262       .  A
C207        H214   1.084       .  S
C207        C208   1.404       .  A
C207        C212   1.396       .  A
C208        C209   1.419       .  A
C209        C210   1.413       .  A
C209        N216   1.432       .  S
C210        H215   1.083       .  S
C210        C211   1.405       .  A
C211        C212   1.410       .  A
C212        N213   1.431       .  S
N213        O217   1.262       .  A
N213        O218   1.262       .  A
N216        O220   1.262       .  A
N216        O219   1.262       .  A
C221        H228   1.084       .  S
C221        C222   1.405       .  A
C221        C226   1.402       .  A
C222        C583   1.418       .  A
C223        C224   1.403       .  A
C223        C582   1.419       .  A
C223        N230   1.432       .  S
C224        H229   1.084       .  S
C224        C585   1.397       .  A
C225        C226   1.413       .  A
C225        C584   1.402       .  A
C226        N227   1.432       .  S
N227        O231   1.262       .  A
N227        O232   1.262       .  A
N230        O234   1.262   1_554  A
N230        O233   1.262       .  A
C235        H242   1.084       .  S
C235        C236   1.400   1_554  A
C235        C240   1.402       .  A
C236        C597   1.410       .  A
C237        C238   1.400       .  A
C237        C596   1.410       .  A
C237        N244   1.429       .  S
C238        H243   1.084       .  S
C238        C599   1.405       .  A
C239        C240   1.420   1_556  A
C239        C598   1.407       .  A
C240        N241   1.433       .  S
N241        O245   1.262       .  A
N241        O246   1.262       .  A
N244        O248   1.262       .  A
N244        O247   1.262       .  A
C249        H256   1.084       .  S
C249        C250   1.402       .  A
C249        C254   1.406       .  A
C250        C251   1.416       .  A
C251        C252   1.401       .  A
C251        N258   1.439       .  S
C252        H257   1.084       .  S
C252        C253   1.406       .  A
C253        C254   1.419       .  A
C254        N255   1.433       .  S
N255        O259   1.262       .  A
N255        O260   1.262       .  A
N258        O262   1.263       .  A
N258        O261   1.263       .  A
C263        H270   1.084       .  S
C263        C264   1.401       .  A
C263        C268   1.402       .  A
C264        C265   1.416       .  A
C265        C266   1.403       .  A
C265        N272   1.434       .  S
C266        H271   1.084       .  S
C266        C267   1.403       .  A
C267        C268   1.418       .  A
C268        N269   1.432       .  S
N269        O273   1.262       .  A
N269        O274   1.262       .  A
N272        O276   1.262       .  A
N272        O275   1.262       .  A
C277        H284   1.084       .  S
C277        C278   1.408       .  A
C277        C282   1.407       .  A
C278        C279   1.407       .  A
C279        C280   1.400       .  A
C279        N286   1.429       .  S
C280        H285   1.084       .  S
C280        C281   1.408       .  A
C281        C282   1.413       .  A
C282        N283   1.437       .  S
N283        O287   1.263       .  A
N283        O288   1.263       .  A
N286        O290   1.262       .  A
N286        O289   1.262       .  A
C291        H298   1.084       .  S
C291        C292   1.403       .  A
C291        C296   1.403       .  A
C292        C293   1.412       .  A
C293        C294   1.405       .  A
C293        N300   1.437       .  S
C294        H299   1.084       .  S
C294        C295   1.406       .  A
C295        C296   1.414       .  A
C296        N297   1.431       .  S
N297        O301   1.262       .  A
N297        O302   1.262       .  A
N300        O304   1.262       .  A
N300        O303   1.263       .  A
C305        H312   1.084       .  S
C305        C310   1.402       .  A
C305       C1026   1.409       .  A
C306        C307   1.414       .  A
C306       C1025   1.407       .  A
C307        C308   1.410       .  A
C307        N314   1.438       .  S
C308        H313   1.084       .  S
C308       C1029   1.408       .  A
C309        C310   1.406       .  A
C309       C1028   1.406   1_545  A
C310        N311   1.429       .  S
N311        O315   1.262       .  A
N311        O316   1.262       .  A
N314        O318   1.263       .  A
N314        O317   1.263       .  A
C319        H326   1.083       .  S
C319        C324   1.403       .  A
C319       C1040   1.408       .  A
C320        C321   1.414   1_565  A
C320       C1039   1.408       .  A
C321        C322   1.396       .  A
C321        N328   1.435       .  S
C322        H327   1.084       .  S
C322       C1043   1.402   1_545  A
C323        C324   1.411       .  A
C323       C1042   1.399       .  A
C324        N325   1.435       .  S
N325        O329   1.262       .  A
N325       O1050   1.262       .  A
N328        O332   1.263   1_545  A
N328       O1051   1.262       .  A
O330       N1045   1.262       .  A
O331       N1048   1.262       .  A
C333        H340   1.084       .  S
C333        C338   1.404       .  A
C333       C1774   1.407   1_455  A
C334        C335   1.416       .  A
C334       C1773   1.407       .  A
C335        C336   1.411       .  A
C335        N342   1.438       .  S
C336        H341   1.083       .  S
C336       C1777   1.409       .  A
C337        C338   1.412       .  A
C337       C1776   1.409   1_455  A
C338        N339   1.430       .  S
N339        O343   1.262       .  A
N339        O344   1.262       .  A
N342        O346   1.263       .  A
N342        O345   1.263       .  A
C347        H354   1.083       .  S
C347        C348   1.408       .  A
C347        C352   1.409       .  A
C348       C1789   1.410       .  A
C349        C350   1.404       .  A
C349       C1788   1.410   1_655  A
C349        N356   1.432       .  S
C350        H355   1.084       .  S
C350        C351   1.409   1_655  A
C351       C1792   1.416       .  A
C352       C1791   1.417       .  A
C352        N353   1.438       .  S
N353        O357   1.263       .  A
N353        O358   1.263       .  A
N356        O360   1.262       .  A
N356        O359   1.262       .  A
O361        C396   1.234       .  S
O361      Mg1083   2.155   1_545  S
O361       Mg369   2.163       .  S
C362        O375   1.235       .  S
C362        O399   1.271   1_545  A
C362        H401   1.080   1_545  S
Mg363      O1081   2.164       .  S
Mg363       O392   2.157       .  S
Mg363       O407   2.310       .  S
Mg363       O403   2.287       .  S
Mg363      O1814   2.299       .  S
O364        C385   1.236       .  S
O364       Mg406   2.152       .  S
O364      Mg1829   2.158   1_455  S
O365        C396   1.269       .  A
O365       Mg389   2.298       .  S
C366        O368   1.274       .  A
C366        O380   1.270       .  A
C366        C652   1.475       .  S
O367        C395   1.269       .  A
O367      Mg1089   2.296       .  S
O368       Mg400   2.290       .  S
Mg369       O375   2.168       .  S
Mg369      O1087   2.301   1_545  S
Mg369       O383   2.289       .  S
Mg369       O371   2.278       .  S
C370       O1128   1.268   1_545  A
C370        O376   1.276       .  A
C370        C669   1.476       .  S
O371        C378   1.272       .  A
H372        C385   1.081       .  S
C373        O387   1.235       .  S
C373        O388   1.270       .  A
C373        H398   1.087       .  S
O374        C397   1.270       .  A
O374      Mg1803   2.305   1_455  S
O375       Mg389   2.178       .  S
O376       Mg406   2.325       .  S
C377       O1830   1.273       .  A
C377        O382   1.280       .  A
C377        C708   1.495       .  S
C378        O405   1.276       .  A
C378        C638   1.485       .  S
Mg379       O386   2.161       .  S
Mg379       O387   2.162       .  S
Mg379       O380   2.278       .  S
Mg379      O1101   2.299       .  S
Mg379       O408   2.271       .  S
O381        C385   1.271       .  A
O381      Mg1099   2.306   1_545  S
O382       Mg389   2.338       .  S
O383       C1122   1.272   1_545  A
O384        C404   1.279   1_455  A
O384       Mg400   2.323       .  S
O386        C397   1.235       .  S
O386       Mg400   2.169       .  S
O387      Mg1126   2.159       .  S
O388       Mg400   2.301       .  S
Mg389      O1804   2.163       .  S
Mg389       O405   2.302       .  S
O390       C1817   1.274   1_455  A
O390       Mg406   2.275       .  S
H391        C396   1.083       .  S
O392        C395   1.235       .  S
O392      Mg1840   2.154       .  S
H393        C395   1.081       .  S
H394        C397   1.080       .  S
O399      Mg1846   2.306   1_565  S
Mg400      O1832   2.155   1_455  S
C402       O1103   1.271       .  A
C402        O407   1.276       .  A
C402        C683   1.480       .  S
O403       C1844   1.276       .  A
C404       O1843   1.276       .  A
C404        C697   1.493       .  S
Mg406      O1107   2.164   1_545  S
Mg406      O1839   2.305   1_445  S
O408       C1090   1.272       .  A
O409        C444   1.235       .  S
O409       Mg411   2.146       .  S
O409      Mg1857   2.156   1_455  S
C410        O447   1.270   1_554  A
C410        H449   1.081       .  S
Mg411       O455   2.318       .  S
Mg411       O451   2.258       .  S
Mg411       O422   2.297       .  S
O412       C1873   1.235       .  S
O412       Mg437   2.161       .  S
O413       C1884   1.269       .  A
O413       Mg437   2.296       .  S
C414        O416   1.277       .  A
C414        O428   1.274       .  A
C414        C610   1.486       .  S
O415       Mg417   2.302       .  S
O416       Mg448   2.291       .  S
Mg417      O1849   2.156       .  S
Mg417       O423   2.152       .  S
Mg417       O431   2.280       .  S
Mg417       O419   2.310       .  S
C418        O456   1.274       .  A
C418       O1864   1.274   1_455  A
C418        C711   1.491       .  S
O419        C426   1.276       .  A
H420        C433   1.084       .  S
C421        O435   1.234       .  S
C421       O1876   1.268       .  A
C421        H446   1.082       .  S
O422        C445   1.270       .  A
O423       Mg437   2.164       .  S
O424       C1858   1.274       .  A
O424       Mg454   2.297       .  S
C425        O438   1.267   1_554  A
C425        C585   1.470       .  S
C426        O453   1.275       .  A
C426        C627   1.492       .  S
Mg427       O434   2.156       .  S
Mg427      O1875   2.157   1_455  S
Mg427       O428   2.294       .  S
Mg427       O429   2.301       .  S
Mg427       O456   2.287       .  S
O430       Mg437   2.310       .  S
O431        C450   1.274       .  A
O432       Mg448   2.318       .  S
C433       O1852   1.235   1_455  S
O434       Mg448   2.168       .  S
O435      Mg1867   2.154       .  S
O435       Mg454   2.135       .  S
O436       C1861   1.269   1_455  A
O436       Mg448   2.297       .  S
Mg437       O453   2.281       .  S
O438       Mg454   2.231       .  S
H439        C444   1.083       .  S
O440       C1883   1.235   1_455  S
O440       Mg448   2.166       .  S
H441        C443   1.083       .  S
H442        C445   1.081       .  S
C443       O1880   1.235       .  S
C444       O1853   1.270       .  A
O447       Mg454   2.300       .  S
C450       O1895   1.277       .  A
C450        C694   1.492       .  S
O451        C452   1.272       .  A
C452        C596   1.475       .  S
O455       C1890   1.277   1_455  A
O457        C492   1.235       .  S
O457       Mg459   2.157       .  S
O457       Mg465   2.165       .  S
C458        O471   1.235       .  S
C458        O495   1.269       .  A
C458        H497   1.081       .  S
Mg459       O488   2.157       .  S
Mg459       O503   2.282       .  S
Mg459       O499   2.274       .  S
Mg459       O470   2.301       .  S
O460        C481   1.236       .  S
O460       Mg502   2.163       .  S
O460       Mg485   2.168       .  S
O461        C492   1.271       .  A
O461       Mg485   2.307       .  S
C462        O464   1.271       .  A
C462        O476   1.279       .  A
C462        C568   1.489       .  S
O463        C491   1.269       .  A
O463       Mg465   2.297       .  S
O464       Mg496   2.264       .  S
Mg465       O471   2.154       .  S
Mg465       O479   2.293       .  S
Mg465       O467   2.306       .  S
C466        O504   1.275       .  A
C466        O472   1.273       .  A
C466        C641   1.484       .  S
O467        C474   1.278       .  A
H468        C481   1.085       .  S
C469        O483   1.235       .  S
C469        O484   1.270       .  A
C469        H494   1.081       .  S
O470        C493   1.270       .  A
O471       Mg485   2.155       .  S
O472       Mg502   2.285       .  S
C473        O486   1.271       .  A
C473        O478   1.277       .  A
C473        C624   1.483       .  S
C474        O501   1.274       .  A
C474        C557   1.494       .  S
Mg475       O482   2.152       .  S
Mg475       O483   2.162       .  S
Mg475       O476   2.331       .  S
Mg475       O477   2.309       .  S
Mg475       O504   2.291       .  S
O477        C481   1.271       .  A
O478       Mg485   2.321       .  S
O479        C498   1.274       .  A
O480        C500   1.276       .  A
O480       Mg496   2.307       .  S
O482        C493   1.235       .  S
O482       Mg496   2.154       .  S
O483       Mg502   2.154       .  S
O484       Mg496   2.301       .  S
Mg485       O501   2.290       .  S
O486       Mg502   2.263       .  S
H487        C492   1.081       .  S
O488        C491   1.234       .  S
O488       Mg496   2.149       .  S
H489        C491   1.086       .  S
H490        C493   1.081       .  S
O495       Mg502   2.300       .  S
C498        O503   1.273       .  A
C498        C655   1.497       .  S
O499        C500   1.272       .  A
C500        C613   1.487       .  S
O505        C540   1.235       .  S
O505      Mg1227   2.154       .  S
O505       Mg513   2.155       .  S
C506        O519   1.234       .  S
C506        O543   1.269       .  A
C506        H545   1.087       .  S
Mg507      O1225   2.148   1_545  S
Mg507       O536   2.173       .  S
Mg507       O551   2.322       .  S
Mg507       O547   2.286       .  S
O508        C529   1.235       .  S
O508       Mg550   2.171       .  S
O509        C540   1.269       .  A
O509       Mg533   2.297       .  S
C510        O512   1.271       .  A
C510        O524   1.276       .  A
C510        C571   1.480       .  S
O511        C539   1.269       .  A
O511      Mg1233   2.299   1_545  S
O512       Mg544   2.265       .  S
Mg513       O519   2.149       .  S
Mg513      O1231   2.308       .  S
Mg513       O527   2.272       .  S
Mg513       O515   2.307       .  S
C514       O1272   1.270       .  A
C514        O520   1.279       .  A
C514        C666   1.483       .  S
O515        C522   1.276       .  A
H516        C529   1.081       .  S
C517        O531   1.235       .  S
C517        O532   1.270       .  A
C517        H542   1.081       .  S
O518        C541   1.270       .  A
O519       Mg533   2.169       .  S
O520       Mg550   2.338       .  S
C521        O526   1.270       .  A
C521        C599   1.487       .  S
C522        O549   1.270       .  A
C522        C554   1.481       .  S
Mg523       O530   2.153       .  S
Mg523       O531   2.150       .  S
Mg523       O524   2.323       .  S
Mg523      O1245   2.306   1_545  S
Mg523       O552   2.260       .  S
O525        C529   1.269       .  A
O525      Mg1243   2.300       .  S
O526       Mg533   2.266       .  S
O527       C1266   1.272       .  A
O528        C548   1.272   1_556  A
O528       Mg544   2.286       .  S
O530        C541   1.235       .  S
O530       Mg544   2.153       .  S
O531      Mg1270   2.159   1_545  S
O532       Mg544   2.304       .  S
Mg533       O549   2.273       .  S
O534       Mg550   2.291       .  S
H535        C540   1.081       .  S
O536        C539   1.234       .  S
H537        C539   1.081       .  S
H538        C541   1.084       .  S
C546       O1247   1.272   1_545  A
C546        O551   1.279       .  A
C546        C680   1.483   1_545  S
C548        C582   1.485       .  S
Mg550      O1251   2.160       .  S
O552       C1234   1.272       .  A
C553        H560   1.083       .  S
C553        C554   1.404       .  A
C553        C558   1.414       .  A
C554        C555   1.411       .  A
C555        C556   1.397       .  A
C555        N562   1.435       .  S
C556        H561   1.083       .  S
C556        C557   1.406       .  A
C557        C558   1.421       .  A
C558        N559   1.435       .  S
N559        O563   1.262       .  A
N559        O564   1.263       .  A
N562        O566   1.262       .  A
N562        O565   1.263       .  A
C567        H574   1.084       .  S
C567        C568   1.403       .  A
C567        C572   1.406       .  A
C568        C569   1.417       .  A
C569        C570   1.405       .  A
C569        N576   1.431       .  S
C570        H575   1.084       .  S
C570        C571   1.401       .  A
C571        C572   1.418       .  A
C572        N573   1.440       .  S
N573        O577   1.263       .  A
N573        O578   1.263       .  A
N576        O580   1.262       .  A
N576        O579   1.262       .  A
C581        H588   1.084       .  S
C581        C582   1.403       .  A
C581        C586   1.403       .  A
C583        C584   1.402       .  A
C583        N590   1.436       .  S
C584        H589   1.084       .  S
C585        C586   1.413       .  A
C586        N587   1.436       .  S
N587        O591   1.263       .  A
N587        O592   1.262       .  A
N590        O594   1.263       .  A
N590        O593   1.263       .  A
C595        H602   1.084       .  S
C595        C596   1.399       .  A
C595        C600   1.402       .  A
C597        C598   1.402       .  A
C597        N604   1.429       .  S
C598        H603   1.084       .  S
C599        C600   1.421       .  A
C600        N601   1.432       .  S
N601        O605   1.262       .  A
N601        O606   1.262       .  A
N604        O608   1.262       .  A
N604        O607   1.262       .  A
C609        H616   1.084       .  S
C609        C610   1.403       .  A
C609        C614   1.402       .  A
C610        C611   1.420       .  A
C611        C612   1.404       .  A
C611        N618   1.435       .  S
C612        H617   1.084       .  S
C612        C613   1.403       .  A
C613        C614   1.414       .  A
C614        N615   1.427       .  S
N615        O619   1.261       .  A
N615        O620   1.262       .  A
N618        O622   1.262       .  A
N618        O621   1.262       .  A
C623        H630   1.084       .  S
C623        C624   1.401       .  A
C623        C628   1.404       .  A
C624        C625   1.415       .  A
C625        C626   1.404       .  A
C625        N632   1.433       .  S
C626        H631   1.084       .  S
C626        C627   1.406       .  A
C627        C628   1.419       .  A
C628        N629   1.431       .  S
N629        O633   1.262       .  A
N629        O634   1.262       .  A
N632        O636   1.262       .  A
N632        O635   1.262       .  A
C637        H644   1.084       .  S
C637        C638   1.409       .  A
C637        C642   1.407       .  A
C638        C639   1.407       .  A
C639        C640   1.401       .  A
C639        N646   1.428       .  S
C640        H645   1.084       .  S
C640        C641   1.408       .  A
C641        C642   1.413       .  A
C642        N643   1.437       .  S
N643        O647   1.263       .  A
N643        O648   1.263       .  A
N646        O650   1.262       .  A
N646        O649   1.262       .  A
C651        H658   1.084       .  S
C651        C652   1.403       .  A
C651        C656   1.405       .  A
C652        C653   1.406       .  A
C653        C654   1.404       .  A
C653        N660   1.437       .  S
C654        H659   1.080       .  S
C654        C655   1.413       .  A
C655        C656   1.417       .  A
C656        N657   1.432       .  S
N657        O661   1.262       .  A
N657        O662   1.262       .  A
N660        O664   1.263       .  A
N660        O663   1.262       .  A
C665        H672   1.084       .  S
C665       C1386   1.409   1_545  A
C665        C670   1.403       .  A
C666       C1385   1.407       .  A
C666        C667   1.412       .  A
C667        C668   1.409       .  A
C667        N674   1.436       .  S
C668        H673   1.084       .  S
C668       C1389   1.408       .  A
C669       C1388   1.405   1_545  A
C669        C670   1.406       .  A
C670        N671   1.431       .  S
N671        O675   1.262       .  A
N671        O676   1.262       .  A
N674        O678   1.263       .  A
N674        O677   1.262       .  A
C679        H686   1.084       .  S
C679       C1400   1.406       .  A
C679        C684   1.397       .  A
C680       C1399   1.407       .  A
C680        C681   1.413       .  A
C681        C682   1.398       .  A
C681        N688   1.437       .  S
C682        H687   1.084       .  S
C682       C1403   1.405       .  A
C683       C1402   1.403       .  A
C683        C684   1.409       .  A
C684        N685   1.432       .  S
N685        O689   1.262       .  A
N685       O1410   1.262       .  A
N688        O692   1.263       .  A
N688       O1411   1.262   1_565  A
O690       N1405   1.262       .  A
O691       N1408   1.263       .  A
C693        H700   1.084       .  S
C693       C2134   1.407   1_455  A
C693        C698   1.404       .  A
C694       C2133   1.407       .  A
C694        C695   1.417       .  A
C695        C696   1.410       .  A
C695        N702   1.438       .  S
C696        H701   1.083       .  S
C696       C2137   1.407       .  A
C697       C2136   1.407       .  A
C697        C698   1.412   1_655  A
C698        N699   1.431       .  S
N699        O703   1.262       .  A
N699        O704   1.262       .  A
N702        O706   1.263       .  A
N702        O705   1.263       .  A
C707        H714   1.083       .  S
C707        C708   1.411       .  A
C707        C712   1.411       .  A
C708       C2149   1.411       .  A
C709       C2148   1.411       .  A
C709        C710   1.403       .  A
C709        N716   1.429       .  S
C710        H715   1.084       .  S
C710        C711   1.408   1_655  A
C711       C2152   1.417       .  A
C712       C2151   1.416       .  A
C712        N713   1.439       .  S
N713        O717   1.263       .  A
N713        O718   1.263       .  A
N716        O720   1.262       .  A
N716        O719   1.262       .  A
O721        C756   1.236       .  S
O721       Mg729   2.166       .  S
C722        O735   1.235       .  S
C722        O759   1.270       .  A
C722        H761   1.080       .  S
Mg723       O752   2.158       .  S
Mg723       O767   2.285       .  S
Mg723       O763   2.277       .  S
Mg723      O2174   2.297       .  S
O724        C745   1.236       .  S
O724       Mg766   2.157       .  S
O724      Mg2189   2.160   1_455  S
O725        C756   1.270       .  A
O725       Mg749   2.302       .  S
C726        O728   1.273       .  A
C726        O740   1.272       .  A
C726       C1012   1.477       .  S
O727        C755   1.270       .  A
O728       Mg760   2.282       .  S
Mg729       O735   2.163       .  S
Mg729       O743   2.274       .  S
Mg729       O731   2.273       .  S
C730        O736   1.276       .  A
C730       C1029   1.485       .  S
O731        C738   1.271       .  A
H732        C745   1.082       .  S
C733        O747   1.235       .  S
C733        O748   1.270       .  A
C733        H758   1.090       .  S
O734        C757   1.269       .  A
O734      Mg2163   2.300   1_455  S
O735       Mg749   2.174       .  S
O736       Mg766   2.323       .  S
C737       O2190   1.274       .  A
C737        O742   1.279       .  A
C737       C1068   1.493       .  S
C738        O765   1.274       .  A
C738        C998   1.475       .  S
Mg739       O746   2.149       .  S
Mg739       O747   2.147       .  S
Mg739       O740   2.294       .  S
Mg739       O768   2.251       .  S
O741        C745   1.271       .  A
O742       Mg749   2.332       .  S
O744        C764   1.277   1_455  A
O744       Mg760   2.320       .  S
O746        C757   1.234       .  S
O746       Mg760   2.152       .  S
O748       Mg760   2.311       .  S
Mg749      O2164   2.155       .  S
Mg749       O765   2.288       .  S
O750       C2177   1.274       .  A
O750       Mg766   2.275       .  S
H751        C756   1.083       .  S
O752        C755   1.235       .  S
O752      Mg2200   2.150       .  S
H753        C755   1.082       .  S
H754        C757   1.081       .  S
O759      Mg2206   2.304       .  S
Mg760      O2192   2.154   1_455  S
C762        O767   1.274       .  A
C762       C1043   1.479       .  S
O763       C2204   1.274       .  A
C764       O2203   1.274       .  A
C764       C1057   1.492       .  S
Mg766      O2199   2.302   1_455  S
O769        C804   1.235       .  S
O769       Mg771   2.146       .  S
O769      Mg2217   2.156   1_455  S
C770       O1143   1.236       .  S
C770        O807   1.270       .  A
C770        H809   1.081       .  S
Mg771      O1160   2.171   1_554  S
Mg771       O815   2.311       .  S
Mg771       O811   2.253       .  S
Mg771       O782   2.294       .  S
O772       C2233   1.236       .  S
O772      Mg1174   2.159   1_554  S
O772       Mg797   2.159       .  S
O773       C2244   1.269       .  A
O773       Mg797   2.299       .  S
C774        O776   1.275       .  A
C774        O788   1.275       .  A
C774        C970   1.480       .  S
O775       C1163   1.270   1_554  A
O775       Mg777   2.300       .  S
O776       Mg808   2.283       .  S
Mg777      O2209   2.157       .  S
Mg777       O783   2.153       .  S
Mg777       O791   2.280       .  S
Mg777       O779   2.308       .  S
C778        O816   1.274       .  A
C778       O2224   1.275   1_455  A
C778       C1071   1.490       .  S
O779        C786   1.275       .  A
H780        C793   1.083       .  S
C781        O795   1.234       .  S
C781       O2236   1.268       .  A
C781        H806   1.082       .  S
O782        C805   1.269   1_554  A
O783       C1130   1.235       .  S
O783       Mg797   2.164       .  S
O784       C2218   1.275       .  A
O784       Mg814   2.310       .  S
C785        O798   1.269       .  A
C785       O1150   1.279       .  A
C785        C945   1.489       .  S
C786        O813   1.276       .  A
C786        C987   1.489       .  S
Mg787       O794   2.154       .  S
Mg787      O2235   2.155   1_455  S
Mg787       O788   2.295       .  S
Mg787       O789   2.301       .  S
Mg787       O816   2.288       .  S
O789       C1153   1.270       .  A
O790       C1145   1.278       .  A
O790       Mg797   2.329       .  S
O791        C810   1.274       .  A
O792       C1172   1.276       .  A
O792       Mg808   2.315       .  S
C793       O2212   1.235   1_455  S
C793       O1149   1.269   1_554  A
O794       C1165   1.235       .  S
O794       Mg808   2.172       .  S
O795      Mg2227   2.155       .  S
O795       Mg814   2.135       .  S
O796       C2221   1.268   1_455  A
O796       Mg808   2.294       .  S
Mg797       O813   2.279       .  S
O798       Mg814   2.237       .  S
H799        C804   1.083       .  S
O800       C2243   1.235   1_455  S
O800      Mg1131   2.171       .  S
O800       Mg808   2.160       .  S
H801        C803   1.083       .  S
H802        C805   1.081       .  S
C803       O2240   1.235       .  S
C803       O1135   1.270       .  A
C804       O2213   1.269   1_455  A
C805       O1154   1.235       .  S
O807       Mg814   2.300       .  S
C810       O2255   1.276       .  A
C810       C1054   1.488       .  S
O811        C812   1.271   1_554  A
C812       O1152   1.276       .  A
C812        C956   1.479       .  S
Mg814      O1132   2.158       .  S
O815       C2250   1.276   1_455  A
O817        C852   1.235       .  S
O817       Mg819   2.155       .  S
O817       Mg825   2.156       .  S
C818        O831   1.236       .  S
C818        O855   1.270       .  A
C818        H857   1.081       .  S
Mg819       O848   2.153       .  S
Mg819       O863   2.290       .  S
Mg819       O859   2.269       .  S
Mg819       O830   2.301       .  S
O820        C841   1.235       .  S
O820       Mg862   2.155       .  S
O820       Mg845   2.158       .  S
O821        C852   1.270       .  A
O821       Mg845   2.304       .  S
C822        O824   1.271       .  A
C822        O836   1.278       .  A
C822        C928   1.482       .  S
O823        C851   1.270       .  A
O823       Mg825   2.304       .  S
O824       Mg856   2.269       .  S
Mg825       O831   2.150       .  S
Mg825       O839   2.285       .  S
Mg825       O827   2.313       .  S
C826        O864   1.274       .  A
C826        O832   1.273       .  A
C826       C1001   1.490       .  S
O827        C834   1.278       .  A
H828        C841   1.084       .  S
C829        O843   1.234       .  S
C829        O844   1.269       .  A
C829        H854   1.081       .  S
O830        C853   1.271       .  A
O831       Mg845   2.157       .  S
O832       Mg862   2.289       .  S
C833        O846   1.271       .  A
C833        O838   1.275       .  A
C833        C984   1.483       .  S
C834        O861   1.273       .  A
C834        C917   1.494       .  S
Mg835       O842   2.148       .  S
Mg835       O843   2.161       .  S
Mg835       O836   2.318       .  S
Mg835       O837   2.305       .  S
Mg835       O864   2.283       .  S
O837        C841   1.270       .  A
O838       Mg845   2.311       .  S
O839        C858   1.274       .  A
O840        C860   1.275       .  A
O840       Mg856   2.298       .  S
O842        C853   1.236       .  S
O842       Mg856   2.163       .  S
O843       Mg862   2.154       .  S
O844       Mg856   2.298       .  S
Mg845       O861   2.279       .  S
O846       Mg862   2.264       .  S
H847        C852   1.081       .  S
O848        C851   1.235       .  S
O848       Mg856   2.149       .  S
H849        C851   1.087       .  S
H850        C853   1.081       .  S
O855       Mg862   2.300       .  S
C858        O863   1.273       .  A
C858       C1015   1.480       .  S
O859        C860   1.270       .  A
C860        C973   1.490       .  S
O865        C900   1.235       .  S
O865       Mg873   2.162       .  S
C866        O879   1.234       .  S
C866        O903   1.268       .  A
C866        H905   1.087       .  S
Mg867       O896   2.164       .  S
Mg867       O911   2.332       .  S
Mg867       O907   2.287       .  S
Mg867      O1238   2.306   1_554  S
O868        C889   1.235       .  S
O868       Mg910   2.169       .  S
O868      Mg1253   2.154       .  S
O869        C900   1.269       .  A
O869       Mg893   2.295       .  S
C870        O872   1.270       .  A
C870        O884   1.274       .  A
C870        C931   1.490       .  S
O871        C899   1.270       .  A
O872       Mg904   2.283       .  S
Mg873       O879   2.141       .  S
Mg873       O887   2.262       .  S
Mg873       O875   2.301       .  S
C874        O880   1.278       .  A
C874       C1026   1.483   1_565  S
O875        C882   1.275       .  A
H876        C889   1.081       .  S
C877        O891   1.236       .  S
C877        O892   1.271       .  A
C877        H902   1.081       .  S
O878        C901   1.270       .  A
O878      Mg1227   2.306       .  S
O879       Mg893   2.166       .  S
O880       Mg910   2.325       .  S
C881       O1254   1.275       .  A
C881        O886   1.270   1_556  A
C881        C959   1.485       .  S
C882        O909   1.271       .  A
C882        C914   1.479       .  S
Mg883       O890   2.150       .  S
Mg883       O891   2.149       .  S
Mg883       O884   2.294       .  S
Mg883       O912   2.255       .  S
O885        C889   1.269       .  A
O886       Mg893   2.270       .  S
O888        C908   1.271       .  A
O888       Mg904   2.281       .  S
O890        C901   1.235       .  S
O890       Mg904   2.151       .  S
O892       Mg904   2.308       .  S
Mg893      O1228   2.159   1_554  S
Mg893       O909   2.279       .  S
O894       C1241   1.276       .  A
O894       Mg910   2.294       .  S
H895        C900   1.081       .  S
O896        C899   1.235       .  S
O896      Mg1264   2.163   1_554  S
H897        C899   1.081       .  S
H898        C901   1.084       .  S
O903      Mg1270   2.296   1_554  S
Mg904      O1256   2.163       .  S
C906        O911   1.280       .  A
C906       C1040   1.503       .  S
O907       C1268   1.274       .  A
C908       O1267   1.273       .  A
C908        C942   1.475       .  S
Mg910      O1263   2.300       .  S
C913        H920   1.083       .  S
C913        C914   1.403       .  A
C913        C918   1.413       .  A
C914        C915   1.408       .  A
C915        C916   1.395       .  A
C915        N922   1.431       .  S
C916        H921   1.084       .  S
C916        C917   1.406       .  A
C917        C918   1.422       .  A
C918        N919   1.434       .  S
N919        O923   1.262       .  A
N919        O924   1.263       .  A
N922        O926   1.262       .  A
N922        O925   1.262       .  A
C927        H934   1.084       .  S
C927        C928   1.406       .  A
C927        C932   1.410       .  A
C928        C929   1.414       .  A
C929        C930   1.400       .  A
C929        N936   1.439       .  S
C930        H935   1.084       .  S
C930        C931   1.406       .  A
C931        C932   1.415       .  A
C932        N933   1.430       .  S
N933        O937   1.262       .  A
N933        O938   1.262       .  A
N936        O940   1.263       .  A
N936        O939   1.263       .  A
C941        H948   1.084       .  S
C941        C942   1.400       .  A
C941        C946   1.399       .  A
C942       C1303   1.413       .  A
C943       C1302   1.412       .  A
C943        C944   1.407       .  A
C943        N950   1.438       .  S
C944        H949   1.083       .  S
C944       C1305   1.409       .  A
C945       C1304   1.408       .  A
C945        C946   1.418       .  A
C946        N947   1.433       .  S
N947        O951   1.262       .  A
N947        O952   1.262       .  A
N950        O954   1.263       .  A
N950        O953   1.262       .  A
C955        H962   1.084       .  S
C955        C956   1.401   1_554  A
C955        C960   1.402       .  A
C956       C1317   1.413       .  A
C957       C1316   1.411       .  A
C957        C958   1.402       .  A
C957        N964   1.430       .  S
C958        H963   1.084       .  S
C958       C1319   1.406       .  A
C959       C1318   1.405       .  A
C959        C960   1.419   1_556  A
C960        N961   1.435       .  S
N961        O965   1.262       .  A
N961        O966   1.263       .  A
N964        O968   1.262       .  A
N964        O967   1.262       .  A
C969        H976   1.084       .  S
C969        C970   1.402       .  A
C969        C974   1.405       .  A
C970        C971   1.417       .  A
C971        C972   1.402       .  A
C971        N978   1.438       .  S
C972        H977   1.084       .  S
C972        C973   1.405       .  A
C973        C974   1.417       .  A
C974        N975   1.431       .  S
N975        O979   1.262       .  A
N975        O980   1.262       .  A
N978        O982   1.263       .  A
N978        O981   1.263       .  A
C983        H990   1.084       .  S
C983        C984   1.402       .  A
C983        C988   1.404       .  A
C984        C985   1.415       .  A
C985        C986   1.403       .  A
C985        N992   1.434       .  S
C986        H991   1.084       .  S
C986        C987   1.405       .  A
C987        C988   1.419       .  A
C988        N989   1.433       .  S
N989        O993   1.262       .  A
N989        O994   1.262       .  A
N992        O996   1.262       .  A
N992        O995   1.263       .  A
C997       H1004   1.084       .  S
C997        C998   1.404       .  A
C997       C1002   1.405       .  A
C998        C999   1.403       .  A
C999       C1000   1.401       .  A
C999       N1006   1.430       .  S
C1000      H1005   1.084       .  S
C1000      C1001   1.412       .  A
C1001      C1002   1.417       .  A
C1002      N1003   1.436       .  S
N1003      O1007   1.262       .  A
N1003      O1008   1.263       .  A
N1006      O1010   1.262       .  A
N1006      O1009   1.262       .  A
C1011      H1018   1.084       .  S
C1011      C1012   1.404       .  A
C1011      C1016   1.403       .  A
C1012      C1013   1.413       .  A
C1013      C1014   1.405       .  A
C1013      N1020   1.437       .  S
C1014      H1019   1.084       .  S
C1014      C1015   1.405       .  A
C1015      C1016   1.413       .  A
C1016      N1017   1.434       .  S
N1017      O1021   1.262       .  A
N1017      O1022   1.262       .  A
N1020      O1024   1.263       .  A
N1020      O1023   1.263       .  A
C1025      H1032   1.084       .  S
C1025      C1030   1.402       .  A
C1026      C1027   1.413   1_545  A
C1027      C1028   1.405       .  A
C1027      N1034   1.436       .  S
C1028      H1033   1.084       .  S
C1029      C1030   1.408       .  A
C1030      N1031   1.430       .  S
N1031      O1035   1.262       .  A
N1031      O1036   1.262       .  A
N1034      O1038   1.263       .  A
N1034      O1037   1.263       .  A
C1039      H1046   1.084       .  S
C1039      C1044   1.408       .  A
C1040      C1041   1.424       .  A
C1041      C1042   1.411       .  A
C1041      N1048   1.433       .  S
C1042      H1047   1.084       .  S
C1043      C1044   1.409       .  A
C1044      N1045   1.428       .  S
N1045      O1049   1.262   1_565  A
N1048      O1052   1.262       .  A
C1053      H1060   1.084       .  S
C1053      C2494   1.407   1_455  A
C1053      C1058   1.403       .  A
C1054      C2493   1.406       .  A
C1054      C1055   1.415       .  A
C1055      C1056   1.409       .  A
C1055      N1062   1.438       .  S
C1056      H1061   1.083       .  S
C1056      C2497   1.409       .  A
C1057      C2496   1.408       .  A
C1057      C1058   1.412   1_655  A
C1058      N1059   1.430       .  S
N1059      O1063   1.262       .  A
N1059      O1064   1.262       .  A
N1062      O1066   1.263       .  A
N1062      O1065   1.263       .  A
C1067      H1074   1.083       .  S
C1067      C1068   1.408       .  A
C1067      C1072   1.411       .  A
C1068      C2509   1.411       .  A
C1069      C2508   1.411   1_655  A
C1069      C1070   1.402       .  A
C1069      N1076   1.430       .  S
C1070      H1075   1.084       .  S
C1070      C1071   1.407   1_655  A
C1071      C2512   1.416       .  A
C1072      C2511   1.417       .  A
C1072      N1073   1.439       .  S
N1073      O1077   1.263       .  A
N1073      O1078   1.263       .  A
N1076      O1080   1.262       .  A
N1076      O1079   1.262       .  A
O1081      C1116   1.235       .  S
O1081     Mg1089   2.171       .  S
C1082      O1095   1.235       .  S
C1082      O1119   1.270       .  A
C1082      H1121   1.080       .  S
Mg1083     O1112   2.156       .  S
Mg1083     O1127   2.294       .  S
Mg1083     O1123   2.278       .  S
Mg1083     O2534   2.299       .  S
O1084      C1105   1.235       .  S
O1084     Mg1126   2.156       .  S
O1084     Mg2549   2.153   1_455  S
O1085      C1116   1.270       .  A
O1085     Mg1109   2.303       .  S
C1086      O1088   1.272       .  A
C1086      O1100   1.271       .  A
C1086      C1372   1.476       .  S
O1087      C1115   1.270       .  A
O1088     Mg1120   2.273       .  S
Mg1089     O1095   2.160       .  S
Mg1089     O1103   2.275       .  S
Mg1089     O1091   2.283       .  S
C1090      O1096   1.277       .  A
C1090      C1389   1.485       .  S
O1091      C1098   1.272       .  A
H1092      C1105   1.081       .  S
C1093      O1107   1.235       .  S
C1093      O1108   1.271       .  A
C1093      H1118   1.089       .  S
O1094      C1117   1.269       .  A
O1094     Mg2523   2.298   1_455  S
O1095     Mg1109   2.171       .  S
O1096     Mg1126   2.320       .  S
C1097      O2550   1.273       .  A
C1097      O1102   1.279       .  A
C1097      C1428   1.490       .  S
C1098      O1125   1.275       .  A
C1098      C1358   1.483       .  S
Mg1099     O1106   2.148       .  S
Mg1099     O1107   2.149       .  S
Mg1099     O1100   2.289       .  S
Mg1099     O1128   2.247       .  S
O1101      C1105   1.269       .  A
O1102     Mg1109   2.331       .  S
O1104      C1124   1.277   1_455  A
O1104     Mg1120   2.317       .  S
O1106      C1117   1.234       .  S
O1106     Mg1120   2.150       .  S
O1108     Mg1120   2.313       .  S
Mg1109     O2524   2.155       .  S
Mg1109     O1125   2.294       .  S
O1110      C2537   1.274       .  A
O1110     Mg1126   2.276       .  S
H1111      C1116   1.084       .  S
O1112      C1115   1.236       .  S
O1112     Mg2560   2.151       .  S
H1113      C1115   1.081       .  S
H1114      C1117   1.080       .  S
O1119     Mg2566   2.303       .  S
Mg1120     O2552   2.144   1_455  S
C1122      O1127   1.275       .  A
C1122      C1403   1.489       .  S
O1123      C2564   1.274       .  A
C1124      O2563   1.274       .  A
C1124      C1417   1.495   1_655  S
Mg1126     O2559   2.303   1_455  S
O1129      C1164   1.234       .  S
O1129     Mg1131   2.143       .  S
O1129     Mg2577   2.159   1_455  S
C1130      O1167   1.269   1_554  A
C1130      H1169   1.081       .  S
Mg1131     O1175   2.309       .  S
Mg1131     O1171   2.252       .  S
Mg1131     O1142   2.294       .  S
O1132      C2593   1.235       .  S
O1132     Mg1157   2.157       .  S
O1133      C2604   1.269       .  A
O1133     Mg1157   2.298       .  S
C1134      O1136   1.276       .  A
C1134      O1148   1.274       .  A
C1134      C1330   1.482       .  S
O1135     Mg1137   2.300       .  S
O1136     Mg1168   2.289       .  S
Mg1137     O2569   2.159       .  S
Mg1137     O1143   2.159       .  S
Mg1137     O1151   2.283       .  S
Mg1137     O1139   2.304       .  S
C1138      O1176   1.273       .  A
C1138      O2584   1.274   1_455  A
C1138      C1431   1.488       .  S
O1139      C1146   1.275       .  A
H1140      C1153   1.083       .  S
C1141      O1155   1.234       .  S
C1141      O2596   1.268       .  A
C1141      H1166   1.082       .  S
O1142      C1165   1.269       .  A
O1143     Mg1157   2.167       .  S
O1144      C2578   1.274       .  A
O1144     Mg1174   2.296       .  S
C1145      O1158   1.268   1_554  A
C1145      C1305   1.492       .  S
C1146      O1173   1.275       .  A
C1146      C1347   1.489       .  S
Mg1147     O1154   2.150       .  S
Mg1147     O2595   2.152   1_455  S
Mg1147     O1148   2.288       .  S
Mg1147     O1149   2.297       .  S
Mg1147     O1176   2.281       .  S
O1150     Mg1157   2.328       .  S
O1151      C1170   1.274       .  A
O1152     Mg1168   2.310       .  S
C1153      O2572   1.235   1_455  S
O1154     Mg1168   2.167       .  S
O1155     Mg2587   2.153       .  S
O1155     Mg1174   2.138       .  S
O1156      C2581   1.268   1_455  A
O1156     Mg1168   2.293       .  S
Mg1157     O1173   2.277       .  S
O1158     Mg1174   2.236       .  S
H1159      C1164   1.083       .  S
O1160      C2603   1.235   1_455  S
O1160     Mg1168   2.164       .  S
H1161      C1163   1.083       .  S
H1162      C1165   1.081       .  S
C1163      O2600   1.236       .  S
C1164      O2573   1.269   1_455  A
O1167     Mg1174   2.297       .  S
C1170      O2615   1.276       .  A
C1170      C1414   1.491       .  S
O1171      C1172   1.271       .  A
C1172      C1316   1.477       .  S
O1175      C2610   1.275   1_455  A
O1177      C1212   1.235       .  S
O1177     Mg1179   2.155       .  S
O1177     Mg1185   2.153       .  S
C1178      O1191   1.235       .  S
C1178      O1215   1.270       .  A
C1178      H1217   1.081       .  S
Mg1179     O1208   2.153       .  S
Mg1179     O1223   2.283       .  S
Mg1179     O1219   2.261       .  S
Mg1179     O1190   2.301       .  S
O1180      C1201   1.235       .  S
O1180     Mg1222   2.158       .  S
O1180     Mg1205   2.157       .  S
O1181      C1212   1.270       .  A
O1181     Mg1205   2.305       .  S
C1182      O1184   1.272       .  A
C1182      O1196   1.278       .  A
C1182      C1288   1.484       .  S
O1183      C1211   1.270       .  A
O1183     Mg1185   2.307       .  S
O1184     Mg1216   2.274       .  S
Mg1185     O1191   2.146       .  S
Mg1185     O1199   2.283       .  S
Mg1185     O1187   2.307       .  S
C1186      O1224   1.275       .  A
C1186      O1192   1.273       .  A
C1186      C1361   1.486       .  S
O1187      C1194   1.277       .  A
H1188      C1201   1.084       .  S
C1189      O1203   1.234       .  S
C1189      O1204   1.269       .  A
C1189      H1214   1.081       .  S
O1190      C1213   1.270       .  A
O1191     Mg1205   2.155       .  S
O1192     Mg1222   2.283       .  S
C1193      O1206   1.271       .  A
C1193      O1198   1.275       .  A
C1193      C1344   1.480       .  S
C1194      O1221   1.272       .  A
C1194      C1277   1.489       .  S
Mg1195     O1202   2.151       .  S
Mg1195     O1203   2.163       .  S
Mg1195     O1196   2.317       .  S
Mg1195     O1197   2.302       .  S
Mg1195     O1224   2.291       .  S
O1197      C1201   1.270       .  A
O1198     Mg1205   2.310       .  S
O1199      C1218   1.273       .  A
O1200      C1220   1.275       .  A
O1200     Mg1216   2.305       .  S
O1202      C1213   1.236       .  S
O1202     Mg1216   2.163       .  S
O1203     Mg1222   2.152       .  S
O1204     Mg1216   2.298       .  S
Mg1205     O1221   2.276       .  S
O1206     Mg1222   2.261       .  S
H1207      C1212   1.081       .  S
O1208      C1211   1.235       .  S
O1208     Mg1216   2.152       .  S
H1209      C1211   1.088       .  S
H1210      C1213   1.081       .  S
O1215     Mg1222   2.299       .  S
C1218      O1223   1.271       .  A
C1218      C1375   1.477       .  S
O1219      C1220   1.269       .  A
C1220      C1333   1.487       .  S
O1225      C1260   1.235       .  S
O1225     Mg1233   2.162       .  S
C1226      O1239   1.234       .  S
C1226      O1263   1.269       .  A
C1226      H1265   1.088       .  S
Mg1227     O1256   2.161       .  S
Mg1227     O1271   2.318       .  S
Mg1227     O1267   2.286       .  S
O1228      C1249   1.236       .  S
O1228     Mg1270   2.170       .  S
O1229      C1260   1.269       .  A
O1229     Mg1253   2.295       .  S
C1230      O1232   1.271       .  A
C1230      O1244   1.273       .  A
C1230      C1291   1.489       .  S
O1231      C1259   1.270       .  A
O1232     Mg1264   2.290       .  S
Mg1233     O1239   2.149       .  S
Mg1233     O1247   2.269       .  S
Mg1233     O1235   2.297       .  S
C1234      O1240   1.277   1_545  A
C1234      C1386   1.483   1_545  S
O1235      C1242   1.274       .  A
H1236      C1249   1.081       .  S
C1237      O1251   1.237       .  S
C1237      O1252   1.272       .  A
C1237      H1262   1.081       .  S
O1238      C1261   1.270       .  A
O1239     Mg1253   2.168       .  S
O1240     Mg1270   2.314       .  S
C1241      O1246   1.270       .  A
C1241      C1319   1.489       .  S
C1242      O1269   1.271       .  A
C1242      C1274   1.479       .  S
Mg1243     O1250   2.148       .  S
Mg1243     O1251   2.149       .  S
Mg1243     O1244   2.292       .  S
Mg1243     O1272   2.253       .  S
O1245      C1249   1.271       .  A
O1246     Mg1253   2.271       .  S
O1248      C1268   1.272   1_556  A
O1248     Mg1264   2.285       .  S
O1250      C1261   1.235       .  S
O1250     Mg1264   2.151       .  S
O1252     Mg1264   2.309       .  S
Mg1253     O1269   2.273       .  S
O1254     Mg1270   2.290       .  S
H1255      C1260   1.081       .  S
O1256      C1259   1.235       .  S
H1257      C1259   1.081       .  S
H1258      C1261   1.084       .  S
C1266      O1271   1.279       .  A
C1266      C1400   1.492       .  S
C1268      C1302   1.474       .  S
C1273      H1280   1.083       .  S
C1273      C1274   1.404       .  A
C1273      C1278   1.412       .  A
C1274      C1275   1.409       .  A
C1275      C1276   1.394       .  A
C1275      N1282   1.430       .  S
C1276      H1281   1.084       .  S
C1276      C1277   1.404       .  A
C1277      C1278   1.419       .  A
C1278      N1279   1.433       .  S
N1279      O1283   1.262       .  A
N1279      O1284   1.262       .  A
N1282      O1286   1.262       .  A
N1282      O1285   1.262       .  A
C1287      H1294   1.084       .  S
C1287      C1288   1.408       .  A
C1287      C1292   1.411       .  A
C1288      C1289   1.414       .  A
C1289      C1290   1.399       .  A
C1289      N1296   1.438       .  S
C1290      H1295   1.084       .  S
C1290      C1291   1.405       .  A
C1291      C1292   1.413       .  A
C1292      N1293   1.429       .  S
N1293      O1297   1.262       .  A
N1293      O1298   1.262       .  A
N1296      O1300   1.263       .  A
N1296      O1299   1.263       .  A
C1301      H1308   1.084       .  S
C1301      C1302   1.399   1_556  A
C1301      C1306   1.399       .  A
C1303      C1304   1.407       .  A
C1303      N1310   1.437       .  S
C1304      H1309   1.083       .  S
C1305      C1306   1.420   1_554  A
C1306      N1307   1.432       .  S
N1307      O1311   1.262       .  A
N1307      O1312   1.262       .  A
N1310      O1314   1.263       .  A
N1310      O1313   1.262       .  A
C1315      H1322   1.084       .  S
C1315      C1316   1.400       .  A
C1315      C1320   1.402       .  A
C1317      C1318   1.402       .  A
C1317      N1324   1.431       .  S
C1318      H1323   1.084       .  S
C1319      C1320   1.420       .  A
C1320      N1321   1.432       .  S
N1321      O1325   1.262       .  A
N1321      O1326   1.262       .  A
N1324      O1328   1.262       .  A
N1324      O1327   1.262       .  A
C1329      H1336   1.084       .  S
C1329      C1330   1.402       .  A
C1329      C1334   1.404       .  A
C1330      C1331   1.419       .  A
C1331      C1332   1.402       .  A
C1331      N1338   1.437       .  S
C1332      H1337   1.084       .  S
C1332      C1333   1.403       .  A
C1333      C1334   1.416       .  A
C1334      N1335   1.430       .  S
N1335      O1339   1.262       .  A
N1335      O1340   1.262       .  A
N1338      O1342   1.263       .  A
N1338      O1341   1.263       .  A
C1343      H1350   1.084       .  S
C1343      C1344   1.402       .  A
C1343      C1348   1.403       .  A
C1344      C1345   1.413       .  A
C1345      C1346   1.402       .  A
C1345      N1352   1.432       .  S
C1346      H1351   1.084       .  S
C1346      C1347   1.405       .  A
C1347      C1348   1.418       .  A
C1348      N1349   1.430       .  S
N1349      O1353   1.262       .  A
N1349      O1354   1.262       .  A
N1352      O1356   1.262       .  A
N1352      O1355   1.262       .  A
C1357      H1364   1.084       .  S
C1357      C1358   1.407       .  A
C1357      C1362   1.407       .  A
C1358      C1359   1.406       .  A
C1359      C1360   1.401       .  A
C1359      N1366   1.429       .  S
C1360      H1365   1.084       .  S
C1360      C1361   1.410       .  A
C1361      C1362   1.415       .  A
C1362      N1363   1.437       .  S
N1363      O1367   1.263       .  A
N1363      O1368   1.263       .  A
N1366      O1370   1.262       .  A
N1366      O1369   1.262       .  A
C1371      H1378   1.084       .  S
C1371      C1372   1.404       .  A
C1371      C1376   1.400       .  A
C1372      C1373   1.415       .  A
C1373      C1374   1.405       .  A
C1373      N1380   1.438       .  S
C1374      H1379   1.084       .  S
C1374      C1375   1.404       .  A
C1375      C1376   1.410       .  A
C1376      N1377   1.431       .  S
N1377      O1381   1.262       .  A
N1377      O1382   1.262       .  A
N1380      O1384   1.263       .  A
N1380      O1383   1.263       .  A
C1385      H1392   1.084       .  S
C1385      C1390   1.402       .  A
C1386      C1387   1.414       .  A
C1387      C1388   1.404       .  A
C1387      N1394   1.435       .  S
C1388      H1393   1.084       .  S
C1389      C1390   1.408       .  A
C1390      N1391   1.430       .  S
N1391      O1395   1.262       .  A
N1391      O1396   1.262       .  A
N1394      O1398   1.262       .  A
N1394      O1397   1.263       .  A
C1399      H1406   1.084       .  S
C1399      C1404   1.411       .  A
C1400      C1401   1.422       .  A
C1401      C1402   1.414       .  A
C1401      N1408   1.437       .  S
C1402      H1407   1.083       .  S
C1403      C1404   1.413       .  A
C1404      N1405   1.429       .  S
N1405      O1409   1.262   1_565  A
N1408      O1412   1.263       .  A
C1413      H1420   1.084       .  S
C1413      C2854   1.405   1_455  A
C1413      C1418   1.402       .  A
C1414      C2853   1.407       .  A
C1414      C1415   1.416       .  A
C1415      C1416   1.410       .  A
C1415      N1422   1.437       .  S
C1416      H1421   1.083       .  S
C1416      C2857   1.409       .  A
C1417      C2856   1.410   1_455  A
C1417      C1418   1.414       .  A
C1418      N1419   1.430       .  S
N1419      O1423   1.262       .  A
N1419      O1424   1.262       .  A
N1422      O1426   1.263       .  A
N1422      O1425   1.263       .  A
C1427      H1434   1.083       .  S
C1427      C1428   1.409       .  A
C1427      C1432   1.409       .  A
C1428      C2869   1.411       .  A
C1429      C2868   1.411   1_655  A
C1429      C1430   1.401       .  A
C1429      N1436   1.430       .  S
C1430      H1435   1.084       .  S
C1430      C1431   1.407   1_655  A
C1431      C2872   1.416       .  A
C1432      C2871   1.415       .  A
C1432      N1433   1.439       .  S
N1433      O1437   1.263       .  A
N1433      O1438   1.263       .  A
N1436      O1440   1.262       .  A
N1436      O1439   1.262       .  A
O1441      C1476   1.235       .  S
O1441     Mg2163   2.159   1_545  S
O1441     Mg1449   2.167       .  S
C1442      O1455   1.235       .  S
C1442      O1479   1.270   1_545  A
C1442      H1481   1.081   1_545  S
Mg1443     O2161   2.159       .  S
Mg1443     O1472   2.162       .  S
Mg1443     O1487   2.314       .  S
Mg1443     O1483   2.286       .  S
O1444      C1465   1.236       .  S
O1444     Mg1486   2.153       .  S
O1445      C1476   1.269       .  A
O1445     Mg1469   2.300       .  S
C1446      O1448   1.273       .  A
C1446      O1460   1.272       .  A
C1446      C1732   1.478       .  S
O1447      C1475   1.269       .  A
O1447     Mg2169   2.294       .  S
O1448     Mg1480   2.282       .  S
Mg1449     O1455   2.164       .  S
Mg1449     O2167   2.301   1_545  S
Mg1449     O1463   2.286       .  S
Mg1449     O1451   2.283       .  S
C1450      O2208   1.268   1_545  A
C1450      O1456   1.275       .  A
C1450      C1749   1.478       .  S
O1451      C1458   1.273       .  A
H1452      C1465   1.082       .  S
C1453      O1467   1.236       .  S
C1453      O1468   1.272       .  A
C1453      H1478   1.088       .  S
O1454      C1477   1.270       .  A
O1455     Mg1469   2.175       .  S
O1456     Mg1486   2.321       .  S
C1457      O1462   1.281   1_455  A
C1457      C1788   1.491       .  S
C1458      O1485   1.277       .  A
C1458      C1718   1.487       .  S
Mg1459     O1466   2.164       .  S
Mg1459     O1467   2.151       .  S
Mg1459     O1460   2.293       .  S
Mg1459     O2181   2.304       .  S
Mg1459     O1488   2.267       .  S
O1461      C1465   1.271       .  A
O1461     Mg2179   2.305   1_545  S
O1462     Mg1469   2.340       .  S
O1463      C2202   1.272   1_545  A
O1464      C1484   1.278       .  A
O1464     Mg1480   2.323       .  S
O1466      C1477   1.235       .  S
O1466     Mg1480   2.152       .  S
O1467     Mg2206   2.165       .  S
O1468     Mg1480   2.314       .  S
Mg1469     O1485   2.306       .  S
O1470     Mg1486   2.274       .  S
H1471      C1476   1.084       .  S
O1472      C1475   1.235       .  S
H1473      C1475   1.081       .  S
H1474      C1477   1.080       .  S
C1482      O2183   1.271       .  A
C1482      O1487   1.277       .  A
C1482      C1763   1.480       .  S
C1484      C1777   1.494       .  S
Mg1486     O2187   2.166   1_545  S
O1488      C2170   1.271       .  A
O1489      C1524   1.235       .  S
O1489     Mg1491   2.141       .  S
C1490      O1863   1.235       .  S
C1490      O1527   1.269       .  A
C1490      H1529   1.081       .  S
Mg1491     O1880   2.170   1_554  S
Mg1491     O1535   2.311       .  S
Mg1491     O1531   2.249       .  S
Mg1491     O1502   2.296       .  S
O1492     Mg1894   2.158   1_554  S
O1492     Mg1517   2.165       .  S
O1493     Mg1517   2.296       .  S
C1494      O1496   1.277       .  A
C1494      O1508   1.275       .  A
C1494      C1690   1.494       .  S
O1495      C1883   1.270   1_554  A
O1495     Mg1497   2.301       .  S
O1496     Mg1528   2.298       .  S
Mg1497     O1503   2.160       .  S
Mg1497     O1511   2.289       .  S
Mg1497     O1499   2.313       .  S
C1498      O1536   1.274       .  A
C1498      C1791   1.491       .  S
O1499      C1506   1.276       .  A
H1500      C1513   1.085       .  S
C1501      O1515   1.234   1_655  S
C1501      H1526   1.082       .  S
O1502      C1525   1.269       .  A
O1503      C1850   1.235       .  S
O1503     Mg1517   2.165       .  S
O1504     Mg1534   2.299       .  S
C1505      O1518   1.268       .  A
C1505      O1870   1.279       .  A
C1505      C1665   1.484       .  S
C1506      O1533   1.276       .  A
C1506      C1707   1.491       .  S
Mg1507     O1514   2.156       .  S
Mg1507     O1508   2.300       .  S
Mg1507     O1509   2.300       .  S
Mg1507     O1536   2.286       .  S
O1509      C1873   1.270       .  A
O1510      C1865   1.278       .  A
O1510     Mg1517   2.333       .  S
O1511      C1530   1.275       .  A
O1512      C1892   1.276       .  A
O1512     Mg1528   2.314       .  S
C1513      O1869   1.270       .  A
O1514      C1885   1.235       .  S
O1514     Mg1528   2.168       .  S
O1515     Mg1534   2.131   1_455  S
O1516     Mg1528   2.295       .  S
Mg1517     O1533   2.279       .  S
O1518     Mg1534   2.228       .  S
H1519      C1524   1.083       .  S
O1520     Mg1851   2.172       .  S
O1520     Mg1528   2.169       .  S
H1521      C1523   1.083       .  S
H1522      C1525   1.081       .  S
C1523      O1855   1.269       .  A
C1525      O1874   1.235   1_554  S
O1527     Mg1534   2.296       .  S
C1530      C1774   1.493       .  S
O1531      C1532   1.271   1_554  A
C1532      O1872   1.276       .  A
C1532      C1676   1.476       .  S
Mg1534     O1852   2.163       .  S
O1537      C1572   1.236       .  S
O1537     Mg1539   2.155       .  S
O1537     Mg1545   2.154       .  S
C1538      O1551   1.235       .  S
C1538      O1575   1.269       .  A
C1538      H1577   1.081       .  S
Mg1539     O1568   2.145       .  S
Mg1539     O1583   2.289       .  S
Mg1539     O1579   2.262       .  S
Mg1539     O1550   2.308       .  S
O1540      C1561   1.236       .  S
O1540     Mg1582   2.162       .  S
O1540     Mg1565   2.165       .  S
O1541      C1572   1.271       .  A
O1541     Mg1565   2.307       .  S
C1542      O1544   1.271       .  A
C1542      O1556   1.280       .  A
C1542      C1648   1.483       .  S
O1543      C1571   1.270       .  A
O1543     Mg1545   2.306       .  S
O1544     Mg1576   2.261       .  S
Mg1545     O1551   2.147       .  S
Mg1545     O1559   2.283       .  S
Mg1545     O1547   2.304       .  S
C1546      O1584   1.276       .  A
C1546      O1552   1.273       .  A
C1546      C1721   1.489       .  S
O1547      C1554   1.277       .  A
H1548      C1561   1.084       .  S
C1549      O1563   1.235       .  S
C1549      O1564   1.270       .  A
C1549      H1574   1.081       .  S
O1550      C1573   1.272       .  A
O1551     Mg1565   2.152       .  S
O1552     Mg1582   2.289       .  S
C1553      O1566   1.272       .  A
C1553      O1558   1.275       .  A
C1553      C1704   1.484       .  S
C1554      O1581   1.273       .  A
C1554      C1637   1.497       .  S
Mg1555     O1562   2.164       .  S
Mg1555     O1563   2.162       .  S
Mg1555     O1556   2.340       .  S
Mg1555     O1557   2.308       .  S
Mg1555     O1584   2.300       .  S
O1557      C1561   1.271       .  A
O1558     Mg1565   2.312       .  S
O1559      C1578   1.273       .  A
O1560      C1580   1.276       .  A
O1560     Mg1576   2.322       .  S
O1562      C1573   1.237       .  S
O1562     Mg1576   2.157       .  S
O1563     Mg1582   2.159       .  S
O1564     Mg1576   2.302       .  S
Mg1565     O1581   2.287       .  S
O1566     Mg1582   2.271       .  S
H1567      C1572   1.081       .  S
O1568      C1571   1.235       .  S
O1568     Mg1576   2.151       .  S
H1569      C1571   1.088       .  S
H1570      C1573   1.081       .  S
O1575     Mg1582   2.298       .  S
C1578      O1583   1.272       .  A
C1578      C1735   1.478       .  S
O1579      C1580   1.269       .  A
C1580      C1693   1.486       .  S
O1585      C1620   1.235       .  S
O1585     Mg2307   2.151       .  S
O1585     Mg1593   2.154       .  S
C1586      O1599   1.235       .  S
C1586      O1623   1.269       .  A
C1586      H1625   1.087       .  S
Mg1587     O2305   2.151   1_545  S
Mg1587     O1616   2.175       .  S
Mg1587     O1631   2.318       .  S
Mg1587     O1627   2.285       .  S
Mg1587     O1958   2.297   1_554  S
O1588      C1609   1.235       .  S
O1588     Mg1630   2.174       .  S
O1588     Mg1973   2.152       .  S
O1589      C1620   1.269       .  A
O1589     Mg1613   2.295       .  S
C1590      O1592   1.271       .  A
C1590      O1604   1.275       .  A
C1590      C1651   1.486       .  S
O1591      C1619   1.269       .  A
O1591     Mg2313   2.300   1_545  S
O1592     Mg1624   2.271       .  S
Mg1593     O1599   2.152       .  S
Mg1593     O2311   2.308       .  S
Mg1593     O1607   2.273       .  S
Mg1593     O1595   2.303       .  S
C1594      O2352   1.272       .  A
C1594      O1600   1.278       .  A
C1594      C1746   1.487       .  S
O1595      C1602   1.274       .  A
H1596      C1609   1.081       .  S
C1597      O1611   1.235       .  S
C1597      O1612   1.271       .  A
C1597      H1622   1.081       .  S
O1598      C1621   1.270       .  A
O1598     Mg1947   2.306       .  S
O1599     Mg1613   2.172       .  S
O1600     Mg1630   2.326       .  S
C1601      O1974   1.276       .  A
C1601      O1606   1.270   1_556  A
C1601      C1679   1.488       .  S
C1602      O1629   1.270       .  A
C1602      C1634   1.477       .  S
Mg1603     O1610   2.152       .  S
Mg1603     O1611   2.150       .  S
Mg1603     O1604   2.314       .  S
Mg1603     O2325   2.305   1_545  S
Mg1603     O1632   2.253       .  S
O1605      C1609   1.269       .  A
O1605     Mg2323   2.298       .  S
O1606     Mg1613   2.267       .  S
O1607      C2346   1.272       .  A
O1608      C1628   1.273       .  A
O1608     Mg1624   2.289       .  S
O1610      C1621   1.235       .  S
O1610     Mg1624   2.152       .  S
O1611     Mg2350   2.162   1_545  S
O1612     Mg1624   2.306       .  S
Mg1613     O1948   2.152   1_554  S
Mg1613     O1629   2.273       .  S
O1614      C1961   1.275       .  A
O1614     Mg1630   2.291       .  S
H1615      C1620   1.081       .  S
O1616      C1619   1.234       .  S
O1616     Mg1984   2.159   1_554  S
H1617      C1619   1.081       .  S
H1618      C1621   1.084       .  S
O1623     Mg1990   2.302   1_554  S
Mg1624     O1976   2.156       .  S
C1626      O2327   1.272   1_545  A
C1626      O1631   1.278       .  A
C1626      C1760   1.483   1_545  S
O1627      C1988   1.274       .  A
C1628      O1987   1.273       .  A
C1628      C1662   1.481       .  S
Mg1630     O2331   2.156       .  S
Mg1630     O1983   2.297       .  S
O1632      C2314   1.270   1_545  A
C1633      H1640   1.083       .  S
C1633      C1634   1.402       .  A
C1633      C1638   1.413       .  A
C1634      C1635   1.406       .  A
C1635      C1636   1.395       .  A
C1635      N1642   1.430       .  S
C1636      H1641   1.084       .  S
C1636      C1637   1.408       .  A
C1637      C1638   1.423       .  A
C1638      N1639   1.433       .  S
N1639      O1643   1.262       .  A
N1639      O1644   1.263       .  A
N1642      O1646   1.262       .  A
N1642      O1645   1.262       .  A
C1647      H1654   1.084       .  S
C1647      C1648   1.402       .  A
C1647      C1652   1.406       .  A
C1648      C1649   1.415       .  A
C1649      C1650   1.404       .  A
C1649      N1656   1.433       .  S
C1650      H1655   1.084       .  S
C1650      C1651   1.404       .  A
C1651      C1652   1.418       .  A
C1652      N1653   1.434       .  S
N1653      O1657   1.263       .  A
N1653      O1658   1.262       .  A
N1656      O1660   1.262       .  A
N1656      O1659   1.262       .  A
C1661      H1668   1.084       .  S
C1661      C1662   1.402       .  A
C1661      C1666   1.401       .  A
C1662      C2023   1.415       .  A
C1663      C2022   1.414       .  A
C1663      C1664   1.403       .  A
C1663      N1670   1.429       .  S
C1664      H1669   1.084       .  S
C1664      C2025   1.400       .  A
C1665      C2024   1.405       .  A
C1665      C1666   1.417       .  A
C1666      N1667   1.436       .  S
N1667      O1671   1.263       .  A
N1667      O1672   1.263       .  A
N1670      O1674   1.262       .  A
N1670      O1673   1.262       .  A
C1675      H1682   1.084       .  S
C1675      C1676   1.399   1_554  A
C1675      C1680   1.401       .  A
C1676      C2037   1.411       .  A
C1677      C2036   1.410       .  A
C1677      C1678   1.402       .  A
C1677      N1684   1.430       .  S
C1678      H1683   1.084       .  S
C1678      C2039   1.406       .  A
C1679      C2038   1.406       .  A
C1679      C1680   1.421   1_556  A
C1680      N1681   1.433       .  S
N1681      O1685   1.262       .  A
N1681      O1686   1.262       .  A
N1684      O1688   1.262       .  A
N1684      O1687   1.262       .  A
C1689      H1696   1.084       .  S
C1689      C1690   1.405       .  A
C1689      C1694   1.405       .  A
C1690      C1691   1.420       .  A
C1691      C1692   1.404       .  A
C1691      N1698   1.431       .  S
C1692      H1697   1.084       .  S
C1692      C1693   1.402       .  A
C1693      C1694   1.416       .  A
C1694      N1695   1.432       .  S
N1695      O1699   1.262       .  A
N1695      O1700   1.262       .  A
N1698      O1702   1.262       .  A
N1698      O1701   1.262       .  A
C1703      H1710   1.084       .  S
C1703      C1704   1.403       .  A
C1703      C1708   1.404       .  A
C1704      C1705   1.415       .  A
C1705      C1706   1.404       .  A
C1705      N1712   1.433       .  S
C1706      H1711   1.084       .  S
C1706      C1707   1.405       .  A
C1707      C1708   1.417       .  A
C1708      N1709   1.430       .  S
N1709      O1713   1.262       .  A
N1709      O1714   1.262       .  A
N1712      O1716   1.262       .  A
N1712      O1715   1.262       .  A
C1717      H1724   1.084       .  S
C1717      C1718   1.409       .  A
C1717      C1722   1.408       .  A
C1718      C1719   1.407       .  A
C1719      C1720   1.403       .  A
C1719      N1726   1.429       .  S
C1720      H1725   1.084       .  S
C1720      C1721   1.410       .  A
C1721      C1722   1.414       .  A
C1722      N1723   1.436       .  S
N1723      O1727   1.263       .  A
N1723      O1728   1.263       .  A
N1726      O1730   1.262       .  A
N1726      O1729   1.262       .  A
C1731      H1738   1.084       .  S
C1731      C1732   1.404       .  A
C1731      C1736   1.403       .  A
C1732      C1733   1.413       .  A
C1733      C1734   1.404       .  A
C1733      N1740   1.435       .  S
C1734      H1739   1.084       .  S
C1734      C1735   1.404       .  A
C1735      C1736   1.411       .  A
C1736      N1737   1.432       .  S
N1737      O1741   1.262       .  A
N1737      O1742   1.262       .  A
N1740      O1744   1.262       .  A
N1740      O1743   1.262       .  A
C1745      H1752   1.084       .  S
C1745      C2466   1.408   1_545  A
C1745      C1750   1.402       .  A
C1746      C2465   1.409       .  A
C1746      C1747   1.414       .  A
C1747      C1748   1.407       .  A
C1747      N1754   1.436       .  S
C1748      H1753   1.084       .  S
C1748      C2469   1.406       .  A
C1749      C2468   1.406   1_545  A
C1749      C1750   1.407       .  A
C1750      N1751   1.429       .  S
N1751      O1755   1.262       .  A
N1751      O1756   1.262       .  A
N1754      O1758   1.263       .  A
N1754      O1757   1.263       .  A
C1759      H1766   1.084       .  S
C1759      C2480   1.407       .  A
C1759      C1764   1.397       .  A
C1760      C2479   1.408       .  A
C1760      C1761   1.414   1_565  A
C1761      C1762   1.398   1_545  A
C1761      N1768   1.437       .  S
C1762      H1767   1.084       .  S
C1762      C2483   1.404       .  A
C1763      C2482   1.402       .  A
C1763      C1764   1.408       .  A
C1764      N1765   1.431       .  S
N1765      O1769   1.262       .  A
N1765      O2490   1.262       .  A
N1768      O1772   1.263   1_545  A
N1768      O2491   1.263       .  A
O1770      N2485   1.262       .  A
O1771      N2488   1.263       .  A
C1773      H1780   1.084       .  S
C1773      C1778   1.402       .  A
C1774      C1775   1.416       .  A
C1775      C1776   1.410       .  A
C1775      N1782   1.437       .  S
C1776      H1781   1.083       .  S
C1777      C1778   1.412       .  A
C1778      N1779   1.430       .  S
N1779      O1783   1.262       .  A
N1779      O1784   1.262       .  A
N1782      O1786   1.263       .  A
N1782      O1785   1.263       .  A
C1787      H1794   1.083       .  S
C1787      C1788   1.409       .  A
C1787      C1792   1.410       .  A
C1789      C1790   1.404       .  A
C1789      N1796   1.430       .  S
C1790      H1795   1.084       .  S
C1790      C1791   1.408       .  A
C1792      N1793   1.439       .  S
N1793      O1797   1.263       .  A
N1793      O1798   1.263       .  A
N1796      O1800   1.262       .  A
N1796      O1799   1.262       .  A
O1801      C1836   1.235       .  S
O1801     Mg2523   2.157   1_545  S
O1801     Mg1809   2.168       .  S
C1802      O1815   1.235       .  S
C1802      O1839   1.270   1_545  A
C1802      H1841   1.080       .  S
Mg1803     O2521   2.165       .  S
Mg1803     O1832   2.156       .  S
Mg1803     O1847   2.332       .  S
Mg1803     O1843   2.290       .  S
O1804      C1825   1.236       .  S
O1804     Mg1846   2.154       .  S
O1805      C1836   1.269       .  A
O1805     Mg1829   2.300       .  S
C1806      O1808   1.275       .  A
C1806      O1820   1.270       .  A
C1806      C2092   1.482       .  S
O1807      C1835   1.269       .  A
O1807     Mg2529   2.297       .  S
O1808     Mg1840   2.290       .  S
Mg1809     O1815   2.164       .  S
Mg1809     O2527   2.296   1_545  S
Mg1809     O1823   2.282       .  S
Mg1809     O1811   2.280       .  S
C1810      O2568   1.269   1_545  A
C1810      O1816   1.276       .  A
C1810      C2109   1.480       .  S
O1811      C1818   1.272       .  A
H1812      C1825   1.082       .  S
C1813      O1827   1.235       .  S
C1813      O1828   1.270       .  A
C1813      H1838   1.087       .  S
O1814      C1837   1.269       .  A
O1815     Mg1829   2.173       .  S
O1816     Mg1846   2.329       .  S
C1817      O1822   1.280       .  A
C1817      C2148   1.494       .  S
C1818      O1845   1.275       .  A
C1818      C2078   1.482       .  S
Mg1819     O1826   2.150       .  S
Mg1819     O1827   2.157       .  S
Mg1819     O1820   2.271       .  S
Mg1819     O2541   2.301       .  S
Mg1819     O1848   2.257       .  S
O1821      C1825   1.271       .  A
O1821     Mg2539   2.307   1_545  S
O1822     Mg1829   2.338       .  S
O1823      C2562   1.272   1_545  A
O1824      C1844   1.279       .  A
O1824     Mg1840   2.325       .  S
O1826      C1837   1.234       .  S
O1826     Mg1840   2.165       .  S
O1827     Mg2566   2.153       .  S
O1828     Mg1840   2.301       .  S
Mg1829     O1845   2.291       .  S
O1830     Mg1846   2.271       .  S
H1831      C1836   1.084       .  S
O1832      C1835   1.235       .  S
H1833      C1835   1.081       .  S
H1834      C1837   1.080       .  S
C1842      O2543   1.270       .  A
C1842      O1847   1.278       .  A
C1842      C2123   1.486       .  S
C1844      C2137   1.493       .  S
Mg1846     O2547   2.164   1_545  S
O1848      C2530   1.269       .  A
O1849      C1884   1.234       .  S
O1849     Mg1851   2.143       .  S
C1850      O1887   1.270   1_554  A
C1850      H1889   1.081       .  S
Mg1851     O1895   2.323       .  S
Mg1851     O1891   2.249       .  S
Mg1851     O1862   2.297       .  S
O1852     Mg1877   2.161       .  S
O1853     Mg1877   2.302   1_455  S
C1854      O1856   1.275       .  A
C1854      O1868   1.274       .  A
C1854      C2050   1.481       .  S
O1855     Mg1857   2.297       .  S
O1856     Mg1888   2.279       .  S
Mg1857     O1863   2.157       .  S
Mg1857     O1871   2.283       .  S
Mg1857     O1859   2.295       .  S
C1858      O1896   1.274       .  A
C1858      C2151   1.491       .  S
O1859      C1866   1.274       .  A
H1860      C1873   1.084       .  S
C1861      O1875   1.234       .  S
C1861      H1886   1.082       .  S
O1862      C1885   1.270       .  A
O1863     Mg1877   2.165       .  S
O1864     Mg1894   2.308       .  S
C1865      O1878   1.268   1_554  A
C1865      C2025   1.473       .  S
C1866      O1893   1.276       .  A
C1866      C2067   1.488       .  S
Mg1867     O1874   2.159       .  S
Mg1867     O1868   2.294       .  S
Mg1867     O1869   2.304   1_556  S
Mg1867     O1896   2.294       .  S
O1870     Mg1877   2.335       .  S
O1871      C1890   1.274       .  A
O1872     Mg1888   2.311       .  S
O1874     Mg1888   2.173       .  S
O1875     Mg1894   2.137       .  S
O1876     Mg1888   2.295       .  S
Mg1877     O1893   2.284       .  S
O1878     Mg1894   2.229       .  S
H1879      C1884   1.083       .  S
O1880     Mg1888   2.157       .  S
H1881      C1883   1.083       .  S
H1882      C1885   1.081       .  S
O1887     Mg1894   2.302       .  S
C1890      C2134   1.493       .  S
O1891      C1892   1.271       .  A
C1892      C2036   1.476       .  S
O1897      C1932   1.235       .  S
O1897     Mg1899   2.153       .  S
O1897     Mg1905   2.165       .  S
C1898      O1911   1.235       .  S
C1898      O1935   1.269       .  A
C1898      H1937   1.081       .  S
Mg1899     O1928   2.161       .  S
Mg1899     O1943   2.279       .  S
Mg1899     O1939   2.267       .  S
Mg1899     O1910   2.296       .  S
O1900      C1921   1.235       .  S
O1900     Mg1942   2.160       .  S
O1900     Mg1925   2.161       .  S
O1901      C1932   1.270       .  A
O1901     Mg1925   2.303       .  S
C1902      O1904   1.272       .  A
C1902      O1916   1.279       .  A
C1902      C2008   1.496       .  S
O1903      C1931   1.269       .  A
O1903     Mg1905   2.299       .  S
O1904     Mg1936   2.273       .  S
Mg1905     O1911   2.149       .  S
Mg1905     O1919   2.287       .  S
Mg1905     O1907   2.309       .  S
C1906      O1944   1.274       .  A
C1906      O1912   1.271       .  A
C1906      C2081   1.481       .  S
O1907      C1914   1.278       .  A
H1908      C1921   1.084       .  S
C1909      O1923   1.235       .  S
C1909      O1924   1.269       .  A
C1909      H1934   1.081       .  S
O1910      C1933   1.269       .  A
O1911     Mg1925   2.158       .  S
O1912     Mg1942   2.276       .  S
C1913      O1926   1.269       .  A
C1913      O1918   1.276       .  A
C1913      C2064   1.480       .  S
C1914      O1941   1.274       .  A
C1914      C1997   1.492       .  S
Mg1915     O1922   2.143       .  S
Mg1915     O1923   2.164       .  S
Mg1915     O1916   2.319       .  S
Mg1915     O1917   2.305       .  S
Mg1915     O1944   2.287       .  S
O1917      C1921   1.270       .  A
O1918     Mg1925   2.319       .  S
O1919      C1938   1.273       .  A
O1920      C1940   1.275       .  A
O1920     Mg1936   2.298       .  S
O1922      C1933   1.235       .  S
O1922     Mg1936   2.156       .  S
O1923     Mg1942   2.147       .  S
O1924     Mg1936   2.299       .  S
Mg1925     O1941   2.284       .  S
O1926     Mg1942   2.250       .  S
H1927      C1932   1.081       .  S
O1928      C1931   1.235       .  S
O1928     Mg1936   2.153       .  S
H1929      C1931   1.086       .  S
H1930      C1933   1.081       .  S
O1935     Mg1942   2.298       .  S
C1938      O1943   1.272       .  A
C1938      C2095   1.484       .  S
O1939      C1940   1.270       .  A
C1940      C2053   1.487       .  S
O1945      C1980   1.235       .  S
O1945     Mg2667   2.157       .  S
O1945     Mg1953   2.150       .  S
C1946      O1959   1.234       .  S
C1946      O1983   1.268       .  A
C1946      H1985   1.087       .  S
Mg1947     O2665   2.146   1_545  S
Mg1947     O1976   2.159       .  S
Mg1947     O1991   2.308       .  S
Mg1947     O1987   2.276       .  S
O1948      C1969   1.234       .  S
O1948     Mg1990   2.169       .  S
O1949      C1980   1.270       .  A
O1949     Mg1973   2.301       .  S
C1950      O1952   1.271       .  A
C1950      O1964   1.275       .  A
C1950      C2011   1.478       .  S
O1951      C1979   1.270       .  A
O1951     Mg2673   2.302   1_545  S
O1952     Mg1984   2.279       .  S
Mg1953     O1959   2.146       .  S
Mg1953     O2671   2.306       .  S
Mg1953     O1967   2.253       .  S
Mg1953     O1955   2.297       .  S
C1954      O2712   1.270       .  A
C1954      O1960   1.279       .  A
C1954      C2106   1.480       .  S
O1955      C1962   1.274       .  A
H1956      C1969   1.081       .  S
C1957      O1971   1.235       .  S
C1957      O1972   1.269       .  A
C1957      H1982   1.081       .  S
O1958      C1981   1.269       .  A
O1959     Mg1973   2.165       .  S
O1960     Mg1990   2.338       .  S
C1961      O1966   1.270       .  A
C1961      C2039   1.488       .  S
C1962      O1989   1.271       .  A
C1962      C1994   1.480       .  S
Mg1963     O1970   2.149       .  S
Mg1963     O1971   2.155       .  S
Mg1963     O1964   2.301       .  S
Mg1963     O2685   2.303   1_545  S
Mg1963     O1992   2.263       .  S
O1965      C1969   1.269       .  A
O1965     Mg2683   2.298       .  S
O1966     Mg1973   2.270       .  S
O1967      C2706   1.270       .  A
O1968      C1988   1.271   1_556  A
O1968     Mg1984   2.278       .  S
O1970      C1981   1.234       .  S
O1970     Mg1984   2.168       .  S
O1971     Mg2710   2.158   1_545  S
O1972     Mg1984   2.300       .  S
Mg1973     O1989   2.278       .  S
O1974     Mg1990   2.296       .  S
H1975      C1980   1.081       .  S
O1976      C1979   1.235       .  S
H1977      C1979   1.081       .  S
H1978      C1981   1.083       .  S
C1986      O2687   1.272   1_545  A
C1986      O1991   1.277       .  A
C1986      C2120   1.485       .  S
C1988      C2022   1.477       .  S
Mg1990     O2691   2.159       .  S
O1992      C2674   1.272       .  A
C1993      H2000   1.083       .  S
C1993      C1994   1.404       .  A
C1993      C1998   1.413       .  A
C1994      C1995   1.411       .  A
C1995      C1996   1.397       .  A
C1995      N2002   1.435       .  S
C1996      H2001   1.084       .  S
C1996      C1997   1.405       .  A
C1997      C1998   1.420       .  A
C1998      N1999   1.434       .  S
N1999      O2003   1.262       .  A
N1999      O2004   1.262       .  A
N2002      O2006   1.262       .  A
N2002      O2005   1.263       .  A
C2007      H2014   1.084       .  S
C2007      C2008   1.406       .  A
C2007      C2012   1.397       .  A
C2008      C2009   1.423       .  A
C2009      C2010   1.412       .  A
C2009      N2016   1.433       .  S
C2010      H2015   1.083       .  S
C2010      C2011   1.401       .  A
C2011      C2012   1.408       .  A
C2012      N2013   1.432       .  S
N2013      O2017   1.262       .  A
N2013      O2018   1.262       .  A
N2016      O2020   1.262       .  A
N2016      O2019   1.262       .  A
C2021      H2028   1.084       .  S
C2021      C2022   1.399       .  A
C2021      C2026   1.402       .  A
C2023      C2024   1.405       .  A
C2023      N2030   1.435       .  S
C2024      H2029   1.084       .  S
C2025      C2026   1.417       .  A
C2026      N2027   1.438       .  S
N2027      O2031   1.263       .  A
N2027      O2032   1.263   1_554  A
N2030      O2034   1.263       .  A
N2030      O2033   1.262       .  A
C2035      H2042   1.084       .  S
C2035      C2036   1.400       .  A
C2035      C2040   1.402       .  A
C2037      C2038   1.402       .  A
C2037      N2044   1.430       .  S
C2038      H2043   1.084       .  S
C2039      C2040   1.421       .  A
C2040      N2041   1.434       .  S
N2041      O2045   1.262       .  A
N2041      O2046   1.262       .  A
N2044      O2048   1.262       .  A
N2044      O2047   1.262       .  A
C2049      H2056   1.084       .  S
C2049      C2050   1.403       .  A
C2049      C2054   1.404       .  A
C2050      C2051   1.418       .  A
C2051      C2052   1.402       .  A
C2051      N2058   1.438       .  S
C2052      H2057   1.084       .  S
C2052      C2053   1.404       .  A
C2053      C2054   1.416       .  A
C2054      N2055   1.431       .  S
N2055      O2059   1.262       .  A
N2055      O2060   1.262       .  A
N2058      O2062   1.263       .  A
N2058      O2061   1.263       .  A
C2063      H2070   1.084       .  S
C2063      C2064   1.400       .  A
C2063      C2068   1.403       .  A
C2064      C2065   1.413       .  A
C2065      C2066   1.401       .  A
C2065      N2072   1.430       .  S
C2066      H2071   1.084       .  S
C2066      C2067   1.404       .  A
C2067      C2068   1.420       .  A
C2068      N2069   1.431       .  S
N2069      O2073   1.262       .  A
N2069      O2074   1.262       .  A
N2072      O2076   1.262       .  A
N2072      O2075   1.262       .  A
C2077      H2084   1.084       .  S
C2077      C2078   1.408       .  A
C2077      C2082   1.405       .  A
C2078      C2079   1.407       .  A
C2079      C2080   1.400       .  A
C2079      N2086   1.429       .  S
C2080      H2085   1.084       .  S
C2080      C2081   1.408       .  A
C2081      C2082   1.412       .  A
C2082      N2083   1.435       .  S
N2083      O2087   1.263       .  A
N2083      O2088   1.262       .  A
N2086      O2090   1.262       .  A
N2086      O2089   1.262       .  A
C2091      H2098   1.084       .  S
C2091      C2092   1.408       .  A
C2091      C2096   1.403       .  A
C2092      C2093   1.410       .  A
C2093      C2094   1.403       .  A
C2093      N2100   1.435       .  S
C2094      H2099   1.084       .  S
C2094      C2095   1.409       .  A
C2095      C2096   1.410       .  A
C2096      N2097   1.431       .  S
N2097      O2101   1.262       .  A
N2097      O2102   1.262       .  A
N2100      O2104   1.263       .  A
N2100      O2103   1.262       .  A
C2105      H2112   1.084       .  S
C2105      C2826   1.409       .  A
C2105      C2110   1.403       .  A
C2106      C2825   1.407       .  A
C2106      C2107   1.410       .  A
C2107      C2108   1.407       .  A
C2107      N2114   1.436       .  S
C2108      H2113   1.084       .  S
C2108      C2829   1.408       .  A
C2109      C2828   1.406   1_545  A
C2109      C2110   1.407       .  A
C2110      N2111   1.431       .  S
N2111      O2115   1.262       .  A
N2111      O2116   1.262       .  A
N2114      O2118   1.262       .  A
N2114      O2117   1.262       .  A
C2119      H2126   1.084       .  S
C2119      C2840   1.402       .  A
C2119      C2124   1.407       .  A
C2120      C2839   1.403       .  A
C2120      C2121   1.420   1_545  A
C2121      C2122   1.414       .  A
C2121      N2128   1.437       .  S
C2122      H2127   1.083       .  S
C2122      C2843   1.404       .  A
C2123      C2842   1.401       .  A
C2123      C2124   1.419       .  A
C2124      N2125   1.433       .  S
N2125      O2129   1.262       .  A
N2125      O2850   1.262       .  A
N2128      O2132   1.263   1_565  A
N2128      O2851   1.263       .  A
O2130      N2845   1.262       .  A
O2131      N2848   1.262       .  A
C2133      H2140   1.084       .  S
C2133      C2138   1.404       .  A
C2134      C2135   1.418       .  A
C2135      C2136   1.411       .  A
C2135      N2142   1.438       .  S
C2136      H2141   1.083       .  S
C2137      C2138   1.412       .  A
C2138      N2139   1.430       .  S
N2139      O2143   1.262       .  A
N2139      O2144   1.262       .  A
N2142      O2146   1.263       .  A
N2142      O2145   1.263       .  A
C2147      H2154   1.083       .  S
C2147      C2148   1.409   1_455  A
C2147      C2152   1.411       .  A
C2149      C2150   1.403       .  A
C2149      N2156   1.431       .  S
C2150      H2155   1.084       .  S
C2150      C2151   1.408       .  A
C2152      N2153   1.439       .  S
N2153      O2157   1.263       .  A
N2153      O2158   1.263       .  A
N2156      O2160   1.262       .  A
N2156      O2159   1.262       .  A
O2161      C2196   1.235       .  S
O2161     Mg2169   2.176       .  S
C2162      O2175   1.234       .  S
C2162      O2199   1.269       .  A
C2162      H2201   1.080       .  S
Mg2163     O2192   2.156       .  S
Mg2163     O2207   2.292       .  S
Mg2163     O2203   2.280       .  S
O2164      C2185   1.236       .  S
O2164     Mg2206   2.153       .  S
O2165      C2196   1.270       .  A
O2165     Mg2189   2.299       .  S
C2166      O2168   1.273       .  A
C2166      O2180   1.272       .  A
C2166      C2452   1.480       .  S
O2167      C2195   1.270       .  A
O2168     Mg2200   2.280       .  S
Mg2169     O2175   2.159       .  S
Mg2169     O2183   2.275       .  S
Mg2169     O2171   2.279       .  S
C2170      O2176   1.276       .  A
C2170      C2469   1.482       .  S
O2171      C2178   1.272       .  A
H2172      C2185   1.081       .  S
C2173      O2187   1.235       .  S
C2173      O2188   1.271       .  A
C2173      H2198   1.089       .  S
O2174      C2197   1.268       .  A
O2175     Mg2189   2.172       .  S
O2176     Mg2206   2.324       .  S
C2177      O2182   1.279   1_455  A
C2177      C2508   1.494       .  S
C2178      O2205   1.274       .  A
C2178      C2438   1.479       .  S
Mg2179     O2186   2.146       .  S
Mg2179     O2187   2.152       .  S
Mg2179     O2180   2.293       .  S
Mg2179     O2208   2.246       .  S
O2181      C2185   1.271       .  A
O2182     Mg2189   2.330       .  S
O2184      C2204   1.277       .  A
O2184     Mg2200   2.321       .  S
O2186      C2197   1.234       .  S
O2186     Mg2200   2.151       .  S
O2188     Mg2200   2.312       .  S
Mg2189     O2205   2.294       .  S
O2190     Mg2206   2.279       .  S
H2191      C2196   1.083       .  S
O2192      C2195   1.235       .  S
H2193      C2195   1.082       .  S
H2194      C2197   1.080       .  S
C2202      O2207   1.275       .  A
C2202      C2483   1.486       .  S
C2204      C2497   1.493       .  S
O2209      C2244   1.234       .  S
O2209     Mg2211   2.145       .  S
C2210      O2583   1.235       .  S
C2210      O2247   1.269       .  A
C2210      H2249   1.081       .  S
Mg2211     O2600   2.172   1_554  S
Mg2211     O2255   2.309       .  S
Mg2211     O2251   2.252       .  S
Mg2211     O2222   2.293       .  S
O2212     Mg2614   2.158   1_554  S
O2212     Mg2237   2.153       .  S
O2213     Mg2237   2.300       .  S
C2214      O2216   1.275       .  A
C2214      O2228   1.274       .  A
C2214      C2410   1.481       .  S
O2215      C2603   1.270   1_554  A
O2215     Mg2217   2.302       .  S
O2216     Mg2248   2.285       .  S
Mg2217     O2223   2.155       .  S
Mg2217     O2231   2.283       .  S
Mg2217     O2219   2.306       .  S
C2218      O2256   1.274       .  A
C2218      C2511   1.492       .  S
O2219      C2226   1.275       .  A
H2220      C2233   1.084       .  S
C2221      O2235   1.234       .  S
C2221      H2246   1.082       .  S
O2222      C2245   1.269   1_554  A
O2223      C2570   1.235       .  S
O2223     Mg2237   2.162       .  S
O2224     Mg2254   2.304       .  S
C2225      O2238   1.269       .  A
C2225      O2590   1.279       .  A
C2225      C2385   1.491       .  S
C2226      O2253   1.275       .  A
C2226      C2427   1.491       .  S
Mg2227     O2234   2.156       .  S
Mg2227     O2228   2.293       .  S
Mg2227     O2229   2.298       .  S
Mg2227     O2256   2.288       .  S
O2229      C2593   1.269       .  A
O2230      C2585   1.278       .  A
O2230     Mg2237   2.326       .  S
O2231      C2250   1.274       .  A
O2232      C2612   1.276       .  A
O2232     Mg2248   2.312       .  S
C2233      O2589   1.270   1_554  A
O2234      C2605   1.235       .  S
O2234     Mg2248   2.171       .  S
O2235     Mg2254   2.137       .  S
O2236     Mg2248   2.294       .  S
Mg2237     O2253   2.272       .  S
O2238     Mg2254   2.237       .  S
H2239      C2244   1.083       .  S
O2240     Mg2571   2.172       .  S
O2240     Mg2248   2.163       .  S
H2241      C2243   1.083       .  S
H2242      C2245   1.081       .  S
C2243      O2575   1.269       .  A
C2245      O2594   1.235       .  S
O2247     Mg2254   2.297       .  S
C2250      C2494   1.491       .  S
O2251      C2252   1.271   1_554  A
C2252      O2592   1.276       .  A
C2252      C2396   1.477       .  S
Mg2254     O2572   2.163       .  S
O2257      C2292   1.235       .  S
O2257     Mg2259   2.155       .  S
O2257     Mg2265   2.153       .  S
C2258      O2271   1.235       .  S
C2258      O2295   1.270       .  A
C2258      H2297   1.081       .  S
Mg2259     O2288   2.153       .  S
Mg2259     O2303   2.287       .  S
Mg2259     O2299   2.262       .  S
Mg2259     O2270   2.300       .  S
O2260      C2281   1.235       .  S
O2260     Mg2302   2.154       .  S
O2260     Mg2285   2.162       .  S
O2261      C2292   1.270       .  A
O2261     Mg2285   2.304       .  S
C2262      O2264   1.272       .  A
C2262      O2276   1.278       .  A
C2262      C2368   1.481       .  S
O2263      C2291   1.270       .  A
O2263     Mg2265   2.305       .  S
O2264     Mg2296   2.271       .  S
Mg2265     O2271   2.149       .  S
Mg2265     O2279   2.287       .  S
Mg2265     O2267   2.312       .  S
C2266      O2304   1.275       .  A
C2266      O2272   1.272       .  A
C2266      C2441   1.490       .  S
O2267      C2274   1.278       .  A
H2268      C2281   1.085       .  S
C2269      O2283   1.234       .  S
C2269      O2284   1.268       .  A
C2269      H2294   1.081       .  S
O2270      C2293   1.270       .  A
O2271     Mg2285   2.157       .  S
O2272     Mg2302   2.283       .  S
C2273      O2286   1.269       .  A
C2273      O2278   1.274       .  A
C2273      C2424   1.476       .  S
C2274      O2301   1.273       .  A
C2274      C2357   1.490       .  S
Mg2275     O2282   2.149       .  S
Mg2275     O2283   2.160       .  S
Mg2275     O2276   2.318       .  S
Mg2275     O2277   2.307       .  S
Mg2275     O2304   2.292       .  S
O2277      C2281   1.270       .  A
O2278     Mg2285   2.313       .  S
O2279      C2298   1.274       .  A
O2280      C2300   1.275       .  A
O2280     Mg2296   2.304       .  S
O2282      C2293   1.236       .  S
O2282     Mg2296   2.167       .  S
O2283     Mg2302   2.150       .  S
O2284     Mg2296   2.296       .  S
Mg2285     O2301   2.279       .  S
O2286     Mg2302   2.254       .  S
H2287      C2292   1.081       .  S
O2288      C2291   1.235       .  S
O2288     Mg2296   2.151       .  S
H2289      C2291   1.088       .  S
H2290      C2293   1.081       .  S
O2295     Mg2302   2.301       .  S
C2298      O2303   1.272       .  A
C2298      C2455   1.478       .  S
O2299      C2300   1.269       .  A
C2300      C2413   1.490       .  S
O2305      C2340   1.235       .  S
O2305     Mg2313   2.160       .  S
C2306      O2319   1.234       .  S
C2306      O2343   1.269       .  A
C2306      H2345   1.087       .  S
Mg2307     O2336   2.160       .  S
Mg2307     O2351   2.318       .  S
Mg2307     O2347   2.278       .  S
Mg2307     O2678   2.305   1_554  S
O2308      C2329   1.235       .  S
O2308     Mg2350   2.168       .  S
O2308     Mg2693   2.156       .  S
O2309      C2340   1.269       .  A
O2309     Mg2333   2.297       .  S
C2310      O2312   1.271       .  A
C2310      O2324   1.273       .  A
C2310      C2371   1.490       .  S
O2311      C2339   1.270       .  A
O2312     Mg2344   2.288       .  S
Mg2313     O2319   2.149       .  S
Mg2313     O2327   2.270       .  S
Mg2313     O2315   2.302       .  S
C2314      O2320   1.278       .  A
C2314      C2466   1.480       .  S
O2315      C2322   1.275       .  A
H2316      C2329   1.081       .  S
C2317      O2331   1.237       .  S
C2317      O2332   1.272       .  A
C2317      H2342   1.081       .  S
O2318      C2341   1.271       .  A
O2318     Mg2667   2.310       .  S
O2319     Mg2333   2.167       .  S
O2320     Mg2350   2.322       .  S
C2321      O2694   1.275       .  A
C2321      O2326   1.271   1_556  A
C2321      C2399   1.488       .  S
C2322      O2349   1.271       .  A
C2322      C2354   1.482       .  S
Mg2323     O2330   2.155       .  S
Mg2323     O2331   2.150       .  S
Mg2323     O2324   2.292       .  S
Mg2323     O2352   2.266       .  S
O2325      C2329   1.270       .  A
O2326     Mg2333   2.273       .  S
O2328      C2348   1.272       .  A
O2328     Mg2344   2.286       .  S
O2330      C2341   1.235       .  S
O2330     Mg2344   2.149       .  S
O2332     Mg2344   2.310       .  S
Mg2333     O2668   2.158   1_554  S
Mg2333     O2349   2.279       .  S
O2334      C2681   1.276       .  A
O2334     Mg2350   2.296       .  S
H2335      C2340   1.081       .  S
O2336      C2339   1.235       .  S
O2336     Mg2704   2.163   1_554  S
H2337      C2339   1.081       .  S
H2338      C2341   1.084       .  S
O2343     Mg2710   2.300   1_554  S
Mg2344     O2696   2.165       .  S
C2346      O2351   1.279       .  A
C2346      C2480   1.495       .  S
O2347      C2708   1.273       .  A
C2348      O2707   1.274       .  A
C2348      C2382   1.474       .  S
Mg2350     O2703   2.298       .  S
C2353      H2360   1.083       .  S
C2353      C2354   1.405       .  A
C2353      C2358   1.414       .  A
C2354      C2355   1.410       .  A
C2355      C2356   1.395       .  A
C2355      N2362   1.431       .  S
C2356      H2361   1.084       .  S
C2356      C2357   1.404       .  A
C2357      C2358   1.420       .  A
C2358      N2359   1.434       .  S
N2359      O2363   1.262       .  A
N2359      O2364   1.262       .  A
N2362      O2366   1.262       .  A
N2362      O2365   1.262       .  A
C2367      H2374   1.084       .  S
C2367      C2368   1.406       .  A
C2367      C2372   1.411       .  A
C2368      C2369   1.413       .  A
C2369      C2370   1.399       .  A
C2369      N2376   1.438       .  S
C2370      H2375   1.084       .  S
C2370      C2371   1.406       .  A
C2371      C2372   1.415       .  A
C2372      N2373   1.430       .  S
N2373      O2377   1.262       .  A
N2373      O2378   1.262       .  A
N2376      O2380   1.263       .  A
N2376      O2379   1.263       .  A
C2381      H2388   1.084       .  S
C2381      C2382   1.399       .  A
C2381      C2386   1.398       .  A
C2382      C2743   1.411       .  A
C2383      C2742   1.412       .  A
C2383      C2384   1.406       .  A
C2383      N2390   1.438       .  S
C2384      H2389   1.083       .  S
C2384      C2745   1.408       .  A
C2385      C2744   1.409       .  A
C2385      C2386   1.418       .  A
C2386      N2387   1.430       .  S
N2387      O2391   1.262       .  A
N2387      O2392   1.262       .  A
N2390      O2394   1.263       .  A
N2390      O2393   1.262       .  A
C2395      H2402   1.084       .  S
C2395      C2396   1.400   1_554  A
C2395      C2400   1.402       .  A
C2396      C2757   1.410       .  A
C2397      C2756   1.411       .  A
C2397      C2398   1.402       .  A
C2397      N2404   1.430       .  S
C2398      H2403   1.084       .  S
C2398      C2759   1.406       .  A
C2399      C2758   1.406       .  A
C2399      C2400   1.420   1_556  A
C2400      N2401   1.433       .  S
N2401      O2405   1.262       .  A
N2401      O2406   1.262       .  A
N2404      O2408   1.262       .  A
N2404      O2407   1.262       .  A
C2409      H2416   1.084       .  S
C2409      C2410   1.402       .  A
C2409      C2414   1.405       .  A
C2410      C2411   1.417       .  A
C2411      C2412   1.402       .  A
C2411      N2418   1.438       .  S
C2412      H2417   1.084       .  S
C2412      C2413   1.405       .  A
C2413      C2414   1.419       .  A
C2414      N2415   1.433       .  S
N2415      O2419   1.262       .  A
N2415      O2420   1.262       .  A
N2418      O2422   1.263       .  A
N2418      O2421   1.263       .  A
C2423      H2430   1.084       .  S
C2423      C2424   1.400       .  A
C2423      C2428   1.403       .  A
C2424      C2425   1.412       .  A
C2425      C2426   1.401       .  A
C2425      N2432   1.432       .  S
C2426      H2431   1.084       .  S
C2426      C2427   1.406       .  A
C2427      C2428   1.419       .  A
C2428      N2429   1.429       .  S
N2429      O2433   1.262       .  A
N2429      O2434   1.262       .  A
N2432      O2436   1.262       .  A
N2432      O2435   1.262       .  A
C2437      H2444   1.084       .  S
C2437      C2438   1.406       .  A
C2437      C2442   1.406       .  A
C2438      C2439   1.406       .  A
C2439      C2440   1.402       .  A
C2439      N2446   1.432       .  S
C2440      H2445   1.084       .  S
C2440      C2441   1.411       .  A
C2441      C2442   1.415       .  A
C2442      N2443   1.436       .  S
N2443      O2447   1.263       .  A
N2443      O2448   1.263       .  A
N2446      O2450   1.262       .  A
N2446      O2449   1.262       .  A
C2451      H2458   1.084       .  S
C2451      C2452   1.404       .  A
C2451      C2456   1.404       .  A
C2452      C2453   1.416       .  A
C2453      C2454   1.405       .  A
C2453      N2460   1.438       .  S
C2454      H2459   1.084       .  S
C2454      C2455   1.404       .  A
C2455      C2456   1.413       .  A
C2456      N2457   1.437       .  S
N2457      O2461   1.263       .  A
N2457      O2462   1.262       .  A
N2460      O2464   1.263       .  A
N2460      O2463   1.263       .  A
C2465      H2472   1.084       .  S
C2465      C2470   1.404       .  A
C2466      C2467   1.411       .  A
C2467      C2468   1.404       .  A
C2467      N2474   1.434       .  S
C2468      H2473   1.084       .  S
C2469      C2470   1.407       .  A
C2470      N2471   1.429       .  S
N2471      O2475   1.262       .  A
N2471      O2476   1.262       .  A
N2474      O2478   1.262       .  A
N2474      O2477   1.262       .  A
C2479      H2486   1.084       .  S
C2479      C2484   1.410       .  A
C2480      C2481   1.423       .  A
C2481      C2482   1.413       .  A
C2481      N2488   1.435       .  S
C2482      H2487   1.083       .  S
C2483      C2484   1.411       .  A
C2484      N2485   1.428       .  S
N2485      O2489   1.262   1_565  A
N2488      O2492   1.262       .  A
C2493      H2500   1.084       .  S
C2493      C2498   1.402       .  A
C2494      C2495   1.416       .  A
C2495      C2496   1.410       .  A
C2495      N2502   1.438       .  S
C2496      H2501   1.083       .  S
C2497      C2498   1.412       .  A
C2498      N2499   1.429       .  S
N2499      O2503   1.262       .  A
N2499      O2504   1.262       .  A
N2502      O2506   1.263       .  A
N2502      O2505   1.263       .  A
C2507      H2514   1.083       .  S
C2507      C2508   1.409       .  A
C2507      C2512   1.411       .  A
C2509      C2510   1.403       .  A
C2509      N2516   1.430       .  S
C2510      H2515   1.084       .  S
C2510      C2511   1.408       .  A
C2512      N2513   1.439       .  S
N2513      O2517   1.263       .  A
N2513      O2518   1.263       .  A
N2516      O2520   1.262       .  A
N2516      O2519   1.262       .  A
O2521      C2556   1.236       .  S
O2521     Mg2529   2.164       .  S
C2522      O2535   1.235       .  S
C2522      O2559   1.270       .  A
C2522      H2561   1.080       .  S
Mg2523     O2552   2.158       .  S
Mg2523     O2567   2.291       .  S
Mg2523     O2563   2.282       .  S
O2524      C2545   1.235       .  S
O2524     Mg2566   2.156       .  S
O2525      C2556   1.271       .  A
O2525     Mg2549   2.305       .  S
C2526      O2528   1.273       .  A
C2526      O2540   1.272       .  A
C2526      C2812   1.477       .  S
O2527      C2555   1.269       .  A
O2528     Mg2560   2.280       .  S
Mg2529     O2535   2.155       .  S
Mg2529     O2543   2.259       .  S
Mg2529     O2531   2.271       .  S
C2530      O2536   1.276       .  A
C2530      C2829   1.482       .  S
O2531      C2538   1.271       .  A
H2532      C2545   1.081       .  S
C2533      O2547   1.235       .  S
C2533      O2548   1.271       .  A
C2533      H2558   1.090       .  S
O2534      C2557   1.269       .  A
O2535     Mg2549   2.168       .  S
O2536     Mg2566   2.321       .  S
C2537      O2542   1.278   1_455  A
C2537      C2868   1.491       .  S
C2538      O2565   1.274       .  A
C2538      C2798   1.482       .  S
Mg2539     O2546   2.153       .  S
Mg2539     O2547   2.149       .  S
Mg2539     O2540   2.288       .  S
Mg2539     O2568   2.255       .  S
O2541      C2545   1.270       .  A
O2542     Mg2549   2.323       .  S
O2544      C2564   1.278       .  A
O2544     Mg2560   2.327       .  S
O2546      C2557   1.234       .  S
O2546     Mg2560   2.154       .  S
O2548     Mg2560   2.313       .  S
Mg2549     O2565   2.295       .  S
O2550     Mg2566   2.264       .  S
H2551      C2556   1.084       .  S
O2552      C2555   1.235       .  S
H2553      C2555   1.081       .  S
H2554      C2557   1.081       .  S
C2562      O2567   1.274       .  A
C2562      C2843   1.480       .  S
C2564      C2857   1.494       .  S
O2569      C2604   1.235       .  S
O2569     Mg2571   2.145       .  S
C2570      O2607   1.270   1_554  A
C2570      H2609   1.081       .  S
Mg2571     O2615   2.314       .  S
Mg2571     O2611   2.255       .  S
Mg2571     O2582   2.295       .  S
O2572     Mg2597   2.161       .  S
O2573     Mg2597   2.298       .  S
C2574      O2576   1.276       .  A
C2574      O2588   1.275       .  A
C2574      C2770   1.487       .  S
O2575     Mg2577   2.298       .  S
O2576     Mg2608   2.287       .  S
Mg2577     O2583   2.155       .  S
Mg2577     O2591   2.283       .  S
Mg2577     O2579   2.303       .  S
C2578      O2616   1.273       .  A
C2578      C2871   1.487       .  S
O2579      C2586   1.275       .  A
H2580      C2593   1.083       .  S
C2581      O2595   1.234       .  S
C2581      H2606   1.082       .  S
O2582      C2605   1.269       .  A
O2583     Mg2597   2.166       .  S
O2584     Mg2614   2.301       .  S
C2585      O2598   1.268   1_554  A
C2585      C2745   1.489       .  S
C2586      O2613   1.276       .  A
C2586      C2787   1.489       .  S
Mg2587     O2594   2.149       .  S
Mg2587     O2588   2.301       .  S
Mg2587     O2589   2.302       .  S
Mg2587     O2616   2.280       .  S
O2590     Mg2597   2.327       .  S
O2591      C2610   1.274       .  A
O2592     Mg2608   2.313       .  S
O2594     Mg2608   2.167       .  S
O2595     Mg2614   2.130       .  S
O2596     Mg2608   2.296       .  S
Mg2597     O2613   2.283       .  S
O2598     Mg2614   2.232       .  S
H2599      C2604   1.083       .  S
O2600     Mg2608   2.163       .  S
H2601      C2603   1.083       .  S
H2602      C2605   1.081       .  S
O2607     Mg2614   2.299       .  S
C2610      C2854   1.487       .  S
O2611      C2612   1.271       .  A
C2612      C2756   1.477       .  S
O2617      C2652   1.235       .  S
O2617     Mg2619   2.154       .  S
O2617     Mg2625   2.151       .  S
C2618      O2631   1.235       .  S
C2618      O2655   1.269       .  A
C2618      H2657   1.081       .  S
Mg2619     O2648   2.152       .  S
Mg2619     O2663   2.283       .  S
Mg2619     O2659   2.263       .  S
Mg2619     O2630   2.302       .  S
O2620      C2641   1.235       .  S
O2620     Mg2662   2.157       .  S
O2620     Mg2645   2.154       .  S
O2621      C2652   1.270       .  A
O2621     Mg2645   2.305       .  S
C2622      O2624   1.272       .  A
C2622      O2636   1.278       .  A
C2622      C2728   1.483       .  S
O2623      C2651   1.271       .  A
O2623     Mg2625   2.309       .  S
O2624     Mg2656   2.273       .  S
Mg2625     O2631   2.145       .  S
Mg2625     O2639   2.284       .  S
Mg2625     O2627   2.314       .  S
C2626      O2664   1.275       .  A
C2626      O2632   1.272       .  A
C2626      C2801   1.485       .  S
O2627      C2634   1.278       .  A
H2628      C2641   1.084       .  S
C2629      O2643   1.234       .  S
C2629      O2644   1.269       .  A
C2629      H2654   1.081       .  S
O2630      C2653   1.271       .  A
O2631     Mg2645   2.153       .  S
O2632     Mg2662   2.276       .  S
C2633      O2646   1.271       .  A
C2633      O2638   1.276       .  A
C2633      C2784   1.482       .  S
C2634      O2661   1.272       .  A
C2634      C2717   1.496       .  S
Mg2635     O2642   2.153       .  S
Mg2635     O2643   2.165       .  S
Mg2635     O2636   2.317       .  S
Mg2635     O2637   2.301       .  S
Mg2635     O2664   2.293       .  S
O2637      C2641   1.270       .  A
O2638     Mg2645   2.313       .  S
O2639      C2658   1.273       .  A
O2640      C2660   1.276       .  A
O2640     Mg2656   2.312       .  S
O2642      C2653   1.236       .  S
O2642     Mg2656   2.163       .  S
O2643     Mg2662   2.155       .  S
O2644     Mg2656   2.299       .  S
Mg2645     O2661   2.276       .  S
O2646     Mg2662   2.263       .  S
H2647      C2652   1.081       .  S
O2648      C2651   1.235       .  S
O2648     Mg2656   2.154       .  S
H2649      C2651   1.087       .  S
H2650      C2653   1.081       .  S
O2655     Mg2662   2.297       .  S
C2658      O2663   1.271       .  A
C2658      C2815   1.477       .  S
O2659      C2660   1.269       .  A
C2660      C2773   1.487       .  S
O2665      C2700   1.235       .  S
O2665     Mg2673   2.159       .  S
C2666      O2679   1.234       .  S
C2666      O2703   1.269       .  A
C2666      H2705   1.087       .  S
Mg2667     O2696   2.162       .  S
Mg2667     O2711   2.342       .  S
Mg2667     O2707   2.287       .  S
O2668      C2689   1.235       .  S
O2668     Mg2710   2.170       .  S
O2669      C2700   1.269       .  A
O2669     Mg2693   2.294       .  S
C2670      O2672   1.271       .  A
C2670      O2684   1.273       .  A
C2670      C2731   1.488       .  S
O2671      C2699   1.270       .  A
O2672     Mg2704   2.288       .  S
Mg2673     O2679   2.146       .  S
Mg2673     O2687   2.268       .  S
Mg2673     O2675   2.303       .  S
C2674      O2680   1.278   1_545  A
C2674      C2826   1.485       .  S
O2675      C2682   1.274       .  A
H2676      C2689   1.081       .  S
C2677      O2691   1.236       .  S
C2677      O2692   1.271       .  A
C2677      H2702   1.081       .  S
O2678      C2701   1.270       .  A
O2679     Mg2693   2.165       .  S
O2680     Mg2710   2.323       .  S
C2681      O2686   1.270       .  A
C2681      C2759   1.488       .  S
C2682      O2709   1.271       .  A
C2682      C2714   1.476       .  S
Mg2683     O2690   2.144       .  S
Mg2683     O2691   2.151       .  S
Mg2683     O2684   2.292       .  S
Mg2683     O2712   2.245       .  S
O2685      C2689   1.270       .  A
O2686     Mg2693   2.270       .  S
O2688      C2708   1.272   1_556  A
O2688     Mg2704   2.282       .  S
O2690      C2701   1.235       .  S
O2690     Mg2704   2.154       .  S
O2692     Mg2704   2.306       .  S
Mg2693     O2709   2.273       .  S
O2694     Mg2710   2.289       .  S
H2695      C2700   1.081       .  S
O2696      C2699   1.235       .  S
H2697      C2699   1.081       .  S
H2698      C2701   1.084       .  S
C2706      O2711   1.279       .  A
C2706      C2840   1.485       .  S
C2708      C2742   1.472       .  S
C2713      H2720   1.084       .  S
C2713      C2714   1.401       .  A
C2713      C2718   1.412       .  A
C2714      C2715   1.408       .  A
C2715      C2716   1.396       .  A
C2715      N2722   1.432       .  S
C2716      H2721   1.084       .  S
C2716      C2717   1.407       .  A
C2717      C2718   1.423       .  A
C2718      N2719   1.434       .  S
N2719      O2723   1.262       .  A
N2719      O2724   1.262       .  A
N2722      O2726   1.262       .  A
N2722      O2725   1.262       .  A
C2727      H2734   1.084       .  S
C2727      C2728   1.407       .  A
C2727      C2732   1.410       .  A
C2728      C2729   1.414       .  A
C2729      C2730   1.399       .  A
C2729      N2736   1.438       .  S
C2730      H2735   1.084       .  S
C2730      C2731   1.405       .  A
C2731      C2732   1.412       .  A
C2732      N2733   1.428       .  S
N2733      O2737   1.262       .  A
N2733      O2738   1.262       .  A
N2736      O2740   1.263       .  A
N2736      O2739   1.263       .  A
C2741      H2748   1.084       .  S
C2741      C2742   1.398   1_556  A
C2741      C2746   1.398       .  A
C2743      C2744   1.406       .  A
C2743      N2750   1.434       .  S
C2744      H2749   1.083       .  S
C2745      C2746   1.419   1_554  A
C2746      N2747   1.432       .  S
N2747      O2751   1.262       .  A
N2747      O2752   1.262       .  A
N2750      O2754   1.263       .  A
N2750      O2753   1.262       .  A
C2755      H2762   1.084       .  S
C2755      C2756   1.400       .  A
C2755      C2760   1.402       .  A
C2757      C2758   1.402       .  A
C2757      N2764   1.430       .  S
C2758      H2763   1.084       .  S
C2759      C2760   1.421       .  A
C2760      N2761   1.433       .  S
N2761      O2765   1.262       .  A
N2761      O2766   1.262       .  A
N2764      O2768   1.262       .  A
N2764      O2767   1.262       .  A
C2769      H2776   1.084       .  S
C2769      C2770   1.404       .  A
C2769      C2774   1.404       .  A
C2770      C2771   1.420       .  A
C2771      C2772   1.404       .  A
C2771      N2778   1.436       .  S
C2772      H2777   1.084       .  S
C2772      C2773   1.403       .  A
C2773      C2774   1.416       .  A
C2774      N2775   1.432       .  S
N2775      O2779   1.262       .  A
N2775      O2780   1.262       .  A
N2778      O2782   1.263       .  A
N2778      O2781   1.262       .  A
C2783      H2790   1.084       .  S
C2783      C2784   1.402       .  A
C2783      C2788   1.404       .  A
C2784      C2785   1.413       .  A
C2785      C2786   1.402       .  A
C2785      N2792   1.430       .  S
C2786      H2791   1.084       .  S
C2786      C2787   1.405       .  A
C2787      C2788   1.419       .  A
C2788      N2789   1.432       .  S
N2789      O2793   1.262       .  A
N2789      O2794   1.262       .  A
N2792      O2796   1.262       .  A
N2792      O2795   1.262       .  A
C2797      H2804   1.084       .  S
C2797      C2798   1.408       .  A
C2797      C2802   1.405       .  A
C2798      C2799   1.406       .  A
C2799      C2800   1.402       .  A
C2799      N2806   1.430       .  S
C2800      H2805   1.084       .  S
C2800      C2801   1.410       .  A
C2801      C2802   1.413       .  A
C2802      N2803   1.437       .  S
N2803      O2807   1.262       .  A
N2803      O2808   1.263       .  A
N2806      O2810   1.262       .  A
N2806      O2809   1.262       .  A
C2811      H2818   1.084       .  S
C2811      C2812   1.404       .  A
C2811      C2816   1.403       .  A
C2812      C2813   1.415       .  A
C2813      C2814   1.404       .  A
C2813      N2820   1.438       .  S
C2814      H2819   1.084       .  S
C2814      C2815   1.404       .  A
C2815      C2816   1.412       .  A
C2816      N2817   1.435       .  S
N2817      O2821   1.262       .  A
N2817      O2822   1.262       .  A
N2820      O2824   1.263       .  A
N2820      O2823   1.263       .  A
C2825      H2832   1.084       .  S
C2825      C2830   1.402       .  A
C2826      C2827   1.414   1_545  A
C2827      C2828   1.406       .  A
C2827      N2834   1.436       .  S
C2828      H2833   1.084       .  S
C2829      C2830   1.409       .  A
C2830      N2831   1.432       .  S
N2831      O2835   1.262       .  A
N2831      O2836   1.262       .  A
N2834      O2838   1.262       .  A
N2834      O2837   1.263       .  A
C2839      H2846   1.084       .  S
C2839      C2844   1.394       .  A
C2840      C2841   1.416       .  A
C2841      C2842   1.403       .  A
C2841      N2848   1.430       .  S
C2842      H2847   1.084       .  S
C2843      C2844   1.410   1_565  A
C2844      N2845   1.430       .  S
N2845      O2849   1.262   1_545  A
N2848      O2852   1.262       .  A
C2853      H2860   1.084       .  S
C2853      C2858   1.404       .  A
C2854      C2855   1.414       .  A
C2855      C2856   1.410       .  A
C2855      N2862   1.437       .  S
C2856      H2861   1.083       .  S
C2857      C2858   1.413       .  A
C2858      N2859   1.431       .  S
N2859      O2863   1.262       .  A
N2859      O2864   1.262       .  A
N2862      O2866   1.263       .  A
N2862      O2865   1.263       .  A
C2867      H2874   1.083       .  S
C2867      C2868   1.408       .  A
C2867      C2872   1.410       .  A
C2869      C2870   1.402       .  A
C2869      N2876   1.432       .  S
C2870      H2875   1.084       .  S
C2870      C2871   1.407       .  A
C2872      N2873   1.439       .  S
N2873      O2877   1.263       .  A
N2873      O2878   1.263       .  A
N2876      O2880   1.262       .  A
N2876      O2879   1.262       .  A
