geometry optimzed in LAMMPS
_audit_creation_date              2020-11-30 
_audit_creation_method            'lammps2cif' 
_symmetry_space_group_name_H-M    'P1' 
_symmetry_Int_Tables_number       1 
_symmetry_cell_setting            triclinic 
loop_ 
_symmetry_equiv_pos_as_xyz 
  x,y,z 
_cell_length_a                    43.78811626 
_cell_length_b                    32.90497442011506 
_cell_length_c                    34.40418908910178 
_cell_angle_alpha                 90.09685491110805 
_cell_angle_beta                  90.27030641273824 
_cell_angle_gamma                 90.12594786718905 
loop_ 
_atom_site_label 
_atom_site_type_symbol 
_atom_site_fract_x 
_atom_site_fract_y 
_atom_site_fract_z 
_atom_site_charge 
C1          C  0.99905038  0.97305242  0.03160771     0.02100
C2          C  0.47080955  0.98636088  0.01634315     0.02100
C3          C  0.47011516  0.01413330  0.98544792     0.02100
C4          C  0.49762424  0.02687399  0.96791327     0.02100
C5          C  0.02623722  0.01256515  0.98221536     0.02100
C6          C  0.02683981  0.98491398  0.01383122     0.02100
Fe7        Fe  0.46274188  0.24429895  0.67568665     1.65800
Fe8        Fe  0.03955211  0.25641711  0.67637386     1.73200
Fe9        Fe  0.50107436  0.25052183  0.58975344     1.54400
O10         O  0.47254405  0.20068081  0.58462744    -0.81900
O11         O  0.05849957  0.29796961  0.63881098    -0.80200
O12         O  0.44375851  0.20311918  0.63758007    -0.84400
O13         O  0.44308806  0.29241789  0.64620547    -0.79300
O14         O  0.03825279  0.21154516  0.58736108    -0.81000
O15         O  0.02313870  0.30472513  0.70789485    -0.83800
C16         C  0.44451343  0.30383041  0.61091799     0.97000
C17         C  0.45013885  0.18840990  0.60462992     1.04400
O18         O  0.00113629  0.25040449  0.64701900    -1.12800
O19         O  0.02652499  0.21674177  0.72002491    -0.75200
O20         O  0.47916045  0.19590061  0.70712353    -0.78700
O21         O  0.46384394  0.28949212  0.58694401    -0.79400
C22         C  0.00356380  0.19433159  0.72701586     0.95900
O23         O  0.47573929  0.28355966  0.71961995    -0.77300
O24         O  0.05919605  0.20848697  0.64677278    -0.82500
C25         C  0.05184443  0.31285899  0.60597619     0.98500
C26         C  0.05759123  0.19708854  0.61144290     1.04400
O27         O  0.02950410  0.30040323  0.58566689    -0.78200
C28         C  0.49856927  0.30603725  0.72711862     1.02700
C29         C  0.49875041  0.47445680  0.96704273     0.02100
C30         C  0.47017595  0.48632578  0.98263659     0.02100
C31         C  0.46930173  0.51368723  0.01429610     0.02100
C32         C  0.49706625  0.52767357  0.03098630     0.02100
C33         C  0.02545660  0.51611110  0.01491307     0.02100
C34         C  0.02640634  0.48837645  0.98383550     0.02100
Fe35       Fe  0.46075348  0.75567382  0.32387019     1.65800
Fe36       Fe  0.03761336  0.74408186  0.32442884     1.73200
Fe37       Fe  0.49903243  0.74913587  0.41043958     1.54400
O38         O  0.47172840  0.80039535  0.41469847    -0.81900
O39         O  0.05588961  0.70180885  0.36196009    -0.80200
O40         O  0.44238350  0.79690798  0.36188469    -0.84400
O41         O  0.44082207  0.70740014  0.35309553    -0.79300
O42         O  0.03712085  0.78654076  0.41447478    -0.81000
O43         O  0.02115326  0.69622643  0.29157419    -0.83800
C44         C  0.44183299  0.69691554  0.38866709     0.97000
C45         C  0.44931829  0.81263622  0.39434033     1.04400
O46         O  0.99913865  0.74964181  0.35308101    -1.12800
O47         O  0.02502770  0.78424259  0.28102024    -0.75200
O48         O  0.47725718  0.80414437  0.29212908    -0.78700
O49         O  0.46091429  0.71181435  0.41283127    -0.79400
C50         C  0.00200567  0.80615014  0.27321383     0.95900
O51         O  0.47339812  0.71632471  0.28026197    -0.77300
O52         O  0.05731681  0.79186743  0.35511019    -0.82500
C53         C  0.04870517  0.68558636  0.39400633     0.98500
C54         C  0.05613500  0.80200184  0.39081828     1.04400
O55         O  0.02626539  0.69774060  0.41413616    -0.78200
C56         C  0.49631083  0.69435233  0.27253450     1.02700
C57         C  0.25090255  0.02726372  0.53140747     0.02100
C58         C  0.22238153  0.01424477  0.51619485     0.02100
C59         C  0.22157696  0.98627725  0.48508857     0.02100
C60         C  0.24923620  0.97278105  0.46835142     0.02100
C61         C  0.27770935  0.98551817  0.48385172     0.02100
C62         C  0.27846559  0.01384543  0.51455210     0.02100
Fe63       Fe  0.28803966  0.74581334  0.17559290     1.65800
Fe64       Fe  0.21135591  0.75453731  0.17542086     1.73200
Fe65       Fe  0.24932140  0.75033719  0.08951584     1.54400
O66         O  0.28784905  0.78694478  0.08654858    -0.81900
O67         O  0.19292723  0.70540747  0.14617831    -0.80200
O68         O  0.30596676  0.79551473  0.14687025    -0.84400
O69         O  0.30759774  0.70614799  0.13661120    -0.79300
O70         O  0.22247263  0.80203278  0.08597588    -0.81000
O71         O  0.22560645  0.71597259  0.21949342    -0.83800
C72         C  0.29960750  0.68831387  0.10548689     0.97000
C73         C  0.30576014  0.80407450  0.11083000     1.04400
O74         O  0.24956489  0.75021783  0.14664085    -1.12800
O75         O  0.22675794  0.80398709  0.20661518    -0.75200
O76         O  0.27407382  0.78368675  0.22021607    -0.78700
O77         O  0.27601500  0.69849834  0.08624035    -0.79400
C78         C  0.25088090  0.80557220  0.22704128     0.95900
O79         O  0.27299961  0.69596075  0.20637643    -0.77300
O80         O  0.19161620  0.79450837  0.13667960    -0.82500
C81         C  0.19249944  0.69742521  0.11000884     0.98500
C82         C  0.19895008  0.81195930  0.10522740     1.04400
O83         O  0.21057827  0.71405991  0.08589656    -0.78200
C84         C  0.24879490  0.69395669  0.22637534     1.02700
C85         C  0.25036504  0.52615044  0.46748350     0.02100
C86         C  0.27817460  0.51238258  0.48412951     0.02100
C87         C  0.27767068  0.48533089  0.51597733     0.02100
C88         C  0.24928508  0.47366368  0.53216314     0.02100
C89         C  0.22161747  0.48785046  0.51576228     0.02100
C90         C  0.22208614  0.51499155  0.48416056     0.02100
Fe91       Fe  0.28587096  0.24410570  0.82407446     1.65800
Fe92       Fe  0.20909203  0.25503621  0.82363645     1.73200
Fe93       Fe  0.24746537  0.24941353  0.91011552     1.54400
O94         O  0.27659759  0.20034637  0.91480555    -0.81900
O95         O  0.18982975  0.29660155  0.86129240    -0.80200
O96         O  0.30589113  0.20418794  0.86241043    -0.84400
O97         O  0.30452771  0.29335666  0.85311795    -0.79300
O98         O  0.21107602  0.20892670  0.91235902    -0.81000
O99         O  0.22521471  0.30349195  0.79210182    -0.83800
C100        C  0.30289428  0.30488001  0.88842108     0.97000
C101        C  0.29939209  0.18905523  0.89507430     1.04400
O102        O  0.24745835  0.24954136  0.85289694    -1.12800
O103        O  0.22273575  0.21553083  0.77995989    -0.75200
O104        O  0.26996190  0.19468845  0.79356798    -0.78700
O105        O  0.28404962  0.28965850  0.91257754    -0.79400
C106        C  0.24579806  0.19327589  0.77322991     0.95900
O107        O  0.27223614  0.28200687  0.77928844    -0.77300
O108        O  0.18984204  0.20673781  0.85312029    -0.82500
C109        C  0.19613442  0.31128049  0.89443091     0.98500
C110        C  0.19191233  0.19427553  0.88805206     1.04400
O111        O  0.21826392  0.29855988  0.91490350    -0.78200
C112        C  0.24934674  0.30431173  0.77197098     1.02700
C113        C  0.26689062  0.34214080  0.59796444    -0.18100
C114        C  0.26804649  0.31903851  0.63203629    -0.20200
C115        C  0.25936543  0.33613649  0.66772206     0.20400
C116        C  0.24944245  0.37686090  0.66920035    -0.03100
C117        C  0.24895845  0.40038480  0.63502507    -0.06200
C118        C  0.25744275  0.38282670  0.59915331     0.20700
C119        C  0.24022821  0.44156114  0.63683664     0.18900
C120        C  0.23117837  0.45853138  0.67238144    -0.17700
C121        C  0.23075675  0.43485983  0.70605603    -0.19900
C122        C  0.23999655  0.39410670  0.70482716     0.20400
C123        C  0.23993426  0.37027212  0.73854965    -0.32900
C124        C  0.25029638  0.33004025  0.73725193     0.01100
C125        C  0.26021987  0.31319911  0.70194487    -0.24300
C126        C  0.25650554  0.40640086  0.56524201    -0.28800
C127        C  0.24841179  0.44758590  0.56722198     0.06700
C128        C  0.24092200  0.46512788  0.60310780    -0.27500
H129        H  0.27359562  0.32827830  0.57072812     0.11400
H130        H  0.27556736  0.28772754  0.63045397     0.12600
H131        H  0.22424411  0.49007237  0.67408131     0.11600
H132        H  0.22347257  0.44853023  0.73313604     0.10900
H133        H  0.23222439  0.38304224  0.76586699     0.16300
H134        H  0.26771690  0.28181219  0.70098385     0.12200
H135        H  0.26275598  0.39320303  0.53750911     0.15000
H136        H  0.23574951  0.49728571  0.60464051     0.14800
C137        C  0.22915284  0.67849214  0.36566588    -0.18100
C138        C  0.23053510  0.65576820  0.39990252    -0.20200
C139        C  0.24066712  0.61539637  0.39911267     0.20400
C140        C  0.24944568  0.59765878  0.36343313    -0.03100
C141        C  0.24880743  0.62089825  0.32905575    -0.06200
C142        C  0.23834963  0.66137737  0.33022698     0.20700
C143        C  0.25872565  0.60372028  0.29360095     0.18900
C144        C  0.26833136  0.56306389  0.29275136    -0.17700
C145        C  0.26801088  0.53960015  0.32664329    -0.19900
C146        C  0.25873755  0.55668866  0.36207567     0.20400
C147        C  0.25845886  0.53355514  0.39617569    -0.32900
C148        C  0.25083545  0.55147308  0.43190635     0.01100
C149        C  0.24205802  0.59238755  0.43330302    -0.24300
C150        C  0.23753548  0.68419865  0.29600011    -0.28800
C151        C  0.24809337  0.66771643  0.26088065     0.06700
C152        C  0.25891925  0.62760608  0.25977002    -0.27500
H153        H  0.22116413  0.70961150  0.36695825     0.11400
H154        H  0.22354024  0.66971321  0.42698039     0.12600
H155        H  0.27590445  0.54934156  0.26582862     0.11600
H156        H  0.27531133  0.50819195  0.32522829     0.10900
H157        H  0.26417387  0.50154389  0.39507886     0.16300
H158        H  0.23567309  0.60584470  0.46087520     0.12200
H159        H  0.22956886  0.71538076  0.29685713     0.15000
H160        H  0.26704784  0.61498918  0.23259492     0.14800
C161        C  0.23583984  0.96055344  0.32697687    -0.18100
C162        C  0.23592012  0.93733692  0.29291668    -0.20200
C163        C  0.24294553  0.89579740  0.29427778     0.20400
C164        C  0.24980837  0.87740480  0.33039597    -0.03100
C165        C  0.24907185  0.90061274  0.36482119    -0.06200
C166        C  0.24234716  0.94245247  0.36295349     0.20700
C167        C  0.25529158  0.88203402  0.40103118     0.18900
C168        C  0.26237024  0.84051873  0.40239891    -0.17700
C169        C  0.26357470  0.81762169  0.36817384    -0.19900
C170        C  0.25743490  0.83582809  0.33211915     0.20400
C171        C  0.25863483  0.81315648  0.29774428    -0.32900
C172        C  0.25131985  0.83113347  0.26192358     0.01100
C173        C  0.24320036  0.87226668  0.26023710    -0.24300
C174        C  0.24249440  0.96551171  0.39708238    -0.28800
C175        C  0.24830659  0.94710707  0.43309528     0.06700
C176        C  0.25456303  0.90542086  0.43511353    -0.27500
H177        H  0.23057259  0.99265919  0.32520657     0.11400
H178        H  0.23067314  0.95191833  0.26547958     0.12600
H179        H  0.26719190  0.82582776  0.42990719     0.11600
H180        H  0.26924938  0.78563149  0.36989928     0.10900
H181        H  0.26446448  0.78115134  0.29887440     0.16300
H182        H  0.23749426  0.88589582  0.23246912     0.12200
H183        H  0.23830364  0.99795112  0.39579760     0.15000
H184        H  0.25937995  0.89159799  0.46305634     0.14800
C185        C  0.23242596  0.15783257  0.59820391    -0.18100
C186        C  0.23019318  0.18021883  0.63264228    -0.20200
C187        C  0.23826425  0.16261329  0.66836573     0.20400
C188        C  0.24896147  0.12224079  0.66950699    -0.03100
C189        C  0.25051452  0.09940517  0.63493036    -0.06200
C190        C  0.24233673  0.11735571  0.59906237     0.20700
C191        C  0.25975899  0.05842776  0.63636213     0.18900
C192        C  0.26863397  0.04113682  0.67188962    -0.17700
C193        C  0.26807882  0.06421608  0.70601288    -0.19900
C194        C  0.25796518  0.10462077  0.70521286     0.20400
C195        C  0.25669502  0.12777063  0.73941580    -0.32900
C196        C  0.24540525  0.16759590  0.73839789     0.01100
C197        C  0.23602660  0.18475136  0.70296345    -0.24300
C198        C  0.24377890  0.09426484  0.56485491    -0.28800
C199        C  0.25201681  0.05316308  0.56654578     0.06700
C200        C  0.25949682  0.03529474  0.60231249    -0.27500
H201        H  0.22602868  0.17200753  0.57096120     0.11400
H202        H  0.22219865  0.21133397  0.63134326     0.12600
H203        H  0.27604585  0.00977200  0.67326260     0.11600
H204        H  0.27513997  0.05029599  0.73311319     0.10900
H205        H  0.26418629  0.11484371  0.76681286     0.16300
H206        H  0.22801350  0.21591809  0.70221358     0.12200
H207        H  0.23754327  0.10764521  0.53716279     0.15000
H208        H  0.26479551  0.00315674  0.60353154     0.14800
C209        C  0.14586291  0.54997921  0.38212902    -0.18100
C210        C  0.12117692  0.57369168  0.36962653    -0.20200
C211        C  0.10608422  0.59961996  0.39567919     0.20400
C212        C  0.11530827  0.60066900  0.43501072    -0.03100
C213        C  0.14053842  0.57728399  0.44747291    -0.06200
C214        C  0.15606609  0.55207547  0.42081836     0.20700
C215        C  0.15080951  0.58017518  0.48630194     0.18900
C216        C  0.13513089  0.60503170  0.51266886    -0.17700
C217        C  0.10989237  0.62772754  0.50045589    -0.19900
C218        C  0.10011095  0.62630760  0.46158779     0.20400
C219        C  0.07641753  0.65156463  0.44846756    -0.32900
C220        C  0.06854306  0.65270639  0.40886861     0.01100
C221        C  0.08290734  0.62588261  0.38279910    -0.24300
C222        C  0.18196242  0.53031674  0.43310142    -0.28800
C223        C  0.19301533  0.53455172  0.47134355     0.06700
C224        C  0.17706623  0.55906403  0.49784567    -0.27500
H225        H  0.15744155  0.53074724  0.36130651     0.11400
H226        H  0.11426222  0.57234114  0.33937143     0.12600
H227        H  0.14266806  0.60738466  0.54263360     0.11600
H228        H  0.09850319  0.64723150  0.52121837     0.10900
H229        H  0.06560275  0.67242350  0.46855608     0.16300
H230        H  0.07676143  0.62653968  0.35223529     0.12200
H231        H  0.19402897  0.51102655  0.41277699     0.15000
H232        H  0.18562718  0.56238656  0.52730861     0.14800
C233        C  0.37368994  0.64965892  0.49269483    -0.18100
C234        C  0.35138698  0.62302006  0.50660222    -0.20200
C235        C  0.34140112  0.59020498  0.48375810     0.20400
C236        C  0.35427537  0.58378661  0.44670991    -0.03100
C237        C  0.37635459  0.61118665  0.43233147    -0.06200
C238        C  0.38610435  0.64419335  0.45553374     0.20700
C239        C  0.38826043  0.60597015  0.39456823     0.18900
C240        C  0.37858738  0.57267309  0.37203177    -0.17700
C241        C  0.35708554  0.54506977  0.38657235    -0.19900
C242        C  0.34456484  0.55057990  0.42370094     0.20400
C243        C  0.32164378  0.52452335  0.43763733    -0.32900
C244        C  0.30720242  0.53277998  0.47316966     0.01100
C245        C  0.31787082  0.56473848  0.49663191    -0.24300
C246        C  0.40785630  0.67144838  0.44106681    -0.28800
C247        C  0.41945927  0.66695982  0.40328371     0.06700
C248        C  0.40944259  0.63428572  0.38002978    -0.27500
H249        H  0.38092553  0.67490558  0.51080930     0.11400
H250        H  0.34172034  0.62832513  0.53509338     0.12600
H251        H  0.38754474  0.56808315  0.34305640     0.11600
H252        H  0.34976983  0.51987652  0.36844273     0.10900
H253        H  0.31397581  0.49912460  0.42006540     0.16300
H254        H  0.30676941  0.57087291  0.52413557     0.12200
H255        H  0.41528070  0.69683444  0.45892975     0.15000
H256        H  0.41846267  0.63063214  0.35094237     0.14800
C257        C  0.39095366  0.87475396  0.50108854    -0.18100
C258        C  0.36608285  0.89803882  0.51332459    -0.20200
C259        C  0.34934896  0.92123568  0.48650129     0.20400
C260        C  0.35813027  0.92178693  0.44712225    -0.03100
C261        C  0.38290900  0.89778190  0.43467047    -0.06200
C262        C  0.39927290  0.87391466  0.46175725     0.20700
C263        C  0.39061182  0.89660026  0.39493583     0.18900
C264        C  0.37430683  0.92055365  0.36826986    -0.17700
C265        C  0.35011368  0.94493485  0.38073147    -0.19900
C266        C  0.34161472  0.94538897  0.41998338     0.20400
C267        C  0.31639976  0.96811479  0.43239298    -0.32900
C268        C  0.30661713  0.96591513  0.47114861     0.01100
C269        C  0.32345542  0.94291829  0.49812614    -0.24300
C270        C  0.42275198  0.84830961  0.44878361    -0.28800
C271        C  0.42932471  0.84532162  0.40895597     0.06700
C272        C  0.41366175  0.87027649  0.38234996    -0.27500
H273        H  0.40323441  0.85663711  0.52225460     0.11400
H274        H  0.35968488  0.89749018  0.54370542     0.12600
H275        H  0.37999338  0.91998832  0.33765676     0.11600
H276        H  0.33761923  0.96274825  0.35952579     0.10900
H277        H  0.30380018  0.98648668  0.41174945     0.16300
H278        H  0.31584292  0.94113067  0.52801774     0.12200
H279        H  0.43454357  0.82883305  0.46931129     0.15000
H280        H  0.41877906  0.86819726  0.35159854     0.14800
C281        C  0.14647619  0.87809624  0.50948440    -0.18100
C282        C  0.12368111  0.85170548  0.49597138    -0.20200
C283        C  0.11134096  0.85634881  0.45851553     0.20400
C284        C  0.12158056  0.88846512  0.43472691    -0.03100
C285        C  0.14421636  0.91557092  0.44864613    -0.06200
C286        C  0.15707762  0.90986225  0.48594039     0.20700
C287        C  0.15456314  0.94766211  0.42486682     0.18900
C288        C  0.14194191  0.95259038  0.38759261    -0.17700
C289        C  0.11984240  0.92535433  0.37357662    -0.19900
C290        C  0.10972962  0.89294844  0.39673536     0.20400
C291        C  0.08835324  0.86461356  0.38242028    -0.32900
C292        C  0.07812602  0.83247792  0.40597059     0.01100
C293        C  0.08937713  0.82898248  0.44419178    -0.24300
C294        C  0.18113970  0.93497029  0.49839534    -0.28800
C295        C  0.19239874  0.96580586  0.47419903     0.06700
C296        C  0.17815539  0.97320121  0.43821487    -0.27500
H297        H  0.15608585  0.87335005  0.53819585     0.11400
H298        H  0.11607409  0.82719871  0.51458867     0.12600
H299        H  0.14966180  0.97699416  0.36892769     0.11600
H300        H  0.11087958  0.92940200  0.34443548     0.10900
H301        H  0.07954020  0.86764340  0.35306718     0.16300
H302        H  0.08170962  0.80413549  0.46239756     0.12200
H303        H  0.19211306  0.92943724  0.52620780     0.15000
H304        H  0.18640386  0.99759982  0.41994640     0.14800
C305        C  0.13190083  0.43342724  0.87592321    -0.18100
C306        C  0.10849841  0.45902648  0.88885177    -0.20200
C307        C  0.09539098  0.45332778  0.92561723     0.20400
C308        C  0.10668905  0.42231963  0.95007474    -0.03100
C309        C  0.13077807  0.39708037  0.93737419    -0.06200
C310        C  0.14293410  0.40203739  0.89974431     0.20700
C311        C  0.14197475  0.36602905  0.96185448     0.18900
C312        C  0.12919648  0.36073635  0.99884124    -0.17700
C313        C  0.10495272  0.38517834  0.01108954    -0.19900
C314        C  0.09333569  0.41572880  0.98679028     0.20400
C315        C  0.06793925  0.43881866  0.99798751    -0.32900
C316        C  0.05591984  0.46876171  0.97325301     0.01100
C317        C  0.07054816  0.47710019  0.93784863    -0.24300
C318        C  0.16512997  0.37467370  0.88620544    -0.28800
C319        C  0.17590922  0.34318157  0.91022599     0.06700
C320        C  0.16491897  0.33984100  0.94839250    -0.27500
H321        H  0.14108472  0.43783136  0.84704353     0.11400
H322        H  0.10010649  0.48262695  0.86967574     0.12600
H323        H  0.13747918  0.33702783  0.01797081     0.11600
H324        H  0.09501370  0.37982432  0.03940954     0.10900
H325        H  0.05679532  0.43266652  0.02544799     0.16300
H326        H  0.06193785  0.50106411  0.91930973     0.12200
H327        H  0.17366309  0.37736282  0.85678235     0.15000
H328        H  0.17296034  0.31533446  0.96679755     0.14800
C329        C  0.37816336  0.41437357  0.86329946    -0.18100
C330        C  0.40089966  0.44097589  0.87671347    -0.20200
C331        C  0.40831415  0.44278151  0.91641281     0.20400
C332        C  0.39219354  0.41820619  0.94296482    -0.03100
C333        C  0.36889711  0.39193047  0.92952782    -0.06200
C334        C  0.36220426  0.38948961  0.88942159     0.20700
C335        C  0.35288467  0.36733827  0.95614333     0.18900
C336        C  0.36003036  0.36950501  0.99589114    -0.17700
C337        C  0.38347984  0.39496023  0.00910263    -0.19900
C338        C  0.39990841  0.41901152  0.98282883     0.20400
C339        C  0.42464614  0.44265479  0.99552178    -0.32900
C340        C  0.44143814  0.46619682  0.96909424     0.01100
C341        C  0.43225506  0.46758907  0.92987590    -0.24300
C342        C  0.34017402  0.36158694  0.87611373    -0.28800
C343        C  0.32446301  0.33647938  0.90247335     0.06700
C344        C  0.33057334  0.34020311  0.94250650    -0.27500
H345        H  0.37327392  0.41296361  0.83242494     0.11400
H346        H  0.41315599  0.45948318  0.85592353     0.12600
H347        H  0.34790132  0.35085925  0.01668927     0.11600
H348        H  0.38904729  0.39542093  0.03982205     0.10900
H349        H  0.43161530  0.44166710  0.02579436     0.16300
H350        H  0.44469297  0.48651068  0.90962057     0.12200
H351        H  0.33548123  0.35913833  0.84522997     0.15000
H352        H  0.31875142  0.32087079  0.96304578     0.14800
C353        C  0.11963404  0.65565121  0.00775876    -0.18100
C354        C  0.09640025  0.62995101  0.99426813    -0.20200
C355        C  0.08691774  0.59664244  0.01661305     0.20400
C356        C  0.10092793  0.58912615  0.05292515    -0.03100
C357        C  0.12387264  0.61559291  0.06692984    -0.06200
C358        C  0.13344475  0.64877936  0.04404883     0.20700
C359        C  0.13704431  0.60901423  0.10392280     0.18900
C360        C  0.12749858  0.57570927  0.12625322    -0.17700
C361        C  0.10524227  0.54893295  0.11197829    -0.19900
C362        C  0.09180568  0.55539743  0.07541643     0.20400
C363        C  0.06886404  0.52937288  0.06136634    -0.32900
C364        C  0.05360996  0.53827602  0.02646766     0.01100
C365        C  0.06313162  0.57133663  0.00381014    -0.24300
C366        C  0.15647655  0.67468235  0.05800582    -0.28800
C367        C  0.16943567  0.66858012  0.09501098     0.06700
C368        C  0.15944824  0.63590883  0.11795593    -0.27500
H369        H  0.12662436  0.68112476  0.98994806     0.11400
H370        H  0.08582292  0.63614807  0.96637159     0.12600
H371        H  0.13733473  0.57027873  0.15472588     0.11600
H372        H  0.09824644  0.52344296  0.12976347     0.10900
H373        H  0.06205918  0.50314011  0.07821220     0.16300
H374        H  0.05135218  0.57791942  0.97674911     0.12200
H375        H  0.16378510  0.70026551  0.04049907     0.15000
H376        H  0.16939515  0.63118173  0.14651014     0.14800
C377        C  0.35428033  0.62129392  0.99815376    -0.18100
C378        C  0.37854085  0.59715567  0.98545713    -0.20200
C379        C  0.39595046  0.57472241  0.01217457     0.20400
C380        C  0.38828735  0.57556726  0.05194173    -0.03100
C381        C  0.36423504  0.60062345  0.06486777    -0.06200
C382        C  0.34730861  0.62386309  0.03784619     0.20700
C383        C  0.35792182  0.60360360  0.10493335     0.18900
C384        C  0.37470385  0.58011108  0.13150808    -0.17700
C385        C  0.39808526  0.55457185  0.11859215    -0.19900
C386        C  0.40536424  0.55256770  0.07896085     0.20400
C387        C  0.43021626  0.52938755  0.06607142    -0.32900
C388        C  0.43948517  0.53117693  0.02701152     0.01100
C389        C  0.42168204  0.55292828  0.00007270    -0.24300
C390        C  0.32461941  0.65053560  0.05112722    -0.28800
C391        C  0.31944748  0.65530948  0.09113569     0.06700
C392        C  0.33574853  0.63115029  0.11780686    -0.27500
H393        H  0.34151467  0.63885782  0.97702335     0.11400
H394        H  0.38403461  0.59659975  0.95478585     0.12600
H395        H  0.37006355  0.58197456  0.16236665     0.11600
H396        H  0.41105356  0.53727337  0.13972929     0.10900
H397        H  0.44342367  0.51179893  0.08673755     0.16300
H398        H  0.42865918  0.55418778  0.96989932     0.12200
H399        H  0.31228814  0.66933858  0.03053408     0.15000
H400        H  0.33165649  0.63456043  0.14870502     0.14800
C401        C  0.47049881  0.67721369  0.13476341    -0.18100
C402        C  0.47187576  0.65479875  0.10027817    -0.20200
C403        C  0.48397521  0.61539156  0.10033315     0.20400
C404        C  0.49441591  0.59815834  0.13557458    -0.03100
C405        C  0.49378742  0.62112790  0.17011510    -0.06200
C406        C  0.48167348  0.66078467  0.16964864     0.20700
C407        C  0.00564901  0.60462418  0.20496457     0.18900
C408        C  0.01692562  0.56476438  0.20520240    -0.17700
C409        C  0.01657336  0.54146993  0.17119364    -0.19900
C410        C  0.00559821  0.55803257  0.13628736     0.20400
C411        C  0.00564314  0.53522188  0.10202812    -0.32900
C412        C  0.49666765  0.55281513  0.06666639     0.01100
C413        C  0.48588279  0.59288773  0.06583165    -0.24300
C414        C  0.48151155  0.68360948  0.20393645    -0.28800
C415        C  0.49432506  0.66792737  0.23827279     0.06700
C416        C  0.00636290  0.62849628  0.23876184    -0.27500
H417        H  0.46113935  0.70766379  0.13404187     0.11400
H418        H  0.46349803  0.66827688  0.07357630     0.12600
H419        H  0.02597511  0.55159837  0.23169352     0.11600
H420        H  0.02531487  0.51070067  0.17204979     0.10900
H421        H  0.01275048  0.50370029  0.10268088     0.16300
H422        H  0.47836575  0.60597649  0.03852349     0.12200
H423        H  0.47255617  0.71432579  0.20358888     0.15000
H424        H  0.01611558  0.61649982  0.26539262     0.14800
C425        C  0.11871230  0.36065813  0.50153741    -0.18100
C426        C  0.14302150  0.38487687  0.48912744    -0.20200
C427        C  0.15471179  0.41562067  0.51326585     0.20400
C428        C  0.14136205  0.42279479  0.54989416    -0.03100
C429        C  0.11725027  0.39780550  0.56275157    -0.06200
C430        C  0.10599089  0.36647940  0.53846952     0.20700
C431        C  0.10515711  0.40323847  0.60036559     0.18900
C432        C  0.11625171  0.43489070  0.62397931    -0.17700
C433        C  0.13966400  0.46035453  0.61082093    -0.19900
C434        C  0.15272607  0.45409230  0.57413272     0.20400
C435        C  0.17766281  0.47749390  0.56179148    -0.32900
C436        C  0.19233699  0.46828739  0.52667696     0.01100
C437        C  0.18024526  0.43826987  0.50204837    -0.24300
C438        C  0.08300185  0.34055713  0.55208424    -0.28800
C439        C  0.07203471  0.34449696  0.59015265     0.06700
C440        C  0.08291600  0.37608961  0.61406846    -0.27500
H441        H  0.11033960  0.33671387  0.48260755     0.11400
H442        H  0.15298328  0.37915937  0.46087544     0.12600
H443        H  0.10709376  0.43961494  0.65283367     0.11600
H444        H  0.14814755  0.48420524  0.62978294     0.10900
H445        H  0.18630197  0.50182087  0.58000905     0.16300
H446        H  0.19141744  0.43177167  0.47466654     0.12200
H447        H  0.07488305  0.31579999  0.53389625     0.15000
H448        H  0.07439768  0.37903606  0.64348314     0.14800
C449        C  0.38294108  0.36146478  0.50401296    -0.18100
C450        C  0.35992752  0.38737122  0.49064528    -0.20200
C451        C  0.34537724  0.41417877  0.51629136     0.20400
C452        C  0.35414578  0.41503690  0.55581557    -0.03100
C453        C  0.37710992  0.38844675  0.56943188    -0.06200
C454        C  0.39161120  0.36166379  0.54332550     0.20700
C455        C  0.38521807  0.38824038  0.60919031     0.18900
C456        C  0.37060527  0.41508495  0.63482745    -0.17700
C457        C  0.34806002  0.44174717  0.62124919    -0.19900
C458        C  0.33958156  0.44187734  0.58183913     0.20400
C459        C  0.31618535  0.46740651  0.56817573    -0.32900
C460        C  0.30639188  0.46519162  0.52918966     0.01100
C461        C  0.32155462  0.43916671  0.50331787    -0.24300
C462        C  0.41420207  0.33509745  0.55702352    -0.28800
C463        C  0.42211199  0.33414791  0.59668883     0.06700
C464        C  0.40749860  0.36087178  0.62262888    -0.27500
H465        H  0.39376202  0.34095492  0.48364176     0.11400
H466        H  0.35338049  0.38627453  0.46024905     0.12600
H467        H  0.37651442  0.41533367  0.66544435     0.11600
H468        H  0.33697047  0.46192351  0.64168594     0.10900
H469        H  0.30456145  0.48756179  0.58815208     0.16300
H470        H  0.31381797  0.43711564  0.47338907     0.12200
H471        H  0.42502979  0.31428138  0.53691038     0.15000
H472        H  0.41346766  0.36036172  0.65324203     0.14800
C473        C  0.35706055  0.11739808  0.48773879    -0.18100
C474        C  0.38171826  0.14134982  0.50007806    -0.20200
C475        C  0.39465457  0.13570097  0.53707324     0.20400
C476        C  0.38303060  0.10503667  0.56160747    -0.03100
C477        C  0.35861219  0.08027239  0.54881458    -0.06200
C478        C  0.34522884  0.08699565  0.51197927     0.20700
C479        C  0.34715869  0.04940086  0.57322305     0.18900
C480        C  0.36005168  0.04372540  0.61021870    -0.17700
C481        C  0.38369434  0.06900034  0.62331161    -0.19900
C482        C  0.39522269  0.09984262  0.59932813     0.20400
C483        C  0.41809554  0.12633506  0.61276538    -0.32900
C484        C  0.42951093  0.15715234  0.58859466     0.01100
C485        C  0.41828160  0.16104771  0.55048559    -0.24300
C486        C  0.31967886  0.06403933  0.50059348    -0.28800
C487        C  0.30774969  0.03404463  0.52524858     0.06700
C488        C  0.32241653  0.02559750  0.56067665    -0.27500
H489        H  0.34706909  0.12289152  0.45936374     0.11400
H490        H  0.39028657  0.16485334  0.48096523     0.12600
H491        H  0.35137537  0.02032923  0.62937691     0.11600
H492        H  0.39282839  0.06460550  0.65232227     0.10900
H493        H  0.42670211  0.12350571  0.64224681     0.16300
H494        H  0.42671224  0.18532822  0.53212574     0.12200
H495        H  0.30848742  0.07013970  0.47303457     0.15000
H496        H  0.31395485  0.00138526  0.57897214     0.14800
C497        C  0.13177698  0.08615840  0.63551080    -0.18100
C498        C  0.15393374  0.05911405  0.62183319    -0.20200
C499        C  0.16152465  0.05816425  0.58225137     0.20400
C500        C  0.14647225  0.08452041  0.55613746    -0.03100
C501        C  0.12387988  0.11144152  0.56985171    -0.06200
C502        C  0.11667167  0.11251708  0.60978877     0.20700
C503        C  0.10888213  0.13772940  0.54365969     0.18900
C504        C  0.11665422  0.13707623  0.50415077    -0.17700
C505        C  0.13935575  0.11088038  0.49067754    -0.19900
C506        C  0.15443422  0.08462148  0.51642823     0.20400
C507        C  0.17806816  0.05952700  0.50339835    -0.32900
C508        C  0.19373413  0.03410020  0.52940494     0.01100
C509        C  0.18460017  0.03238111  0.56850523    -0.24300
C510        C  0.09478371  0.14026865  0.62330187    -0.28800
C511        C  0.07970173  0.16651798  0.59726946     0.06700
C512        C  0.08671051  0.16469188  0.55745553    -0.27500
H513        H  0.12656105  0.08659791  0.66626205     0.11400
H514        H  0.16545226  0.03933748  0.64231592     0.12600
H515        H  0.10541303  0.15718945  0.48371920     0.11600
H516        H  0.14527370  0.11135821  0.46013538     0.10900
H517        H  0.18530285  0.06108764  0.47333268     0.16300
H518        H  0.19660019  0.01257189  0.58851253     0.12200
H519        H  0.08948324  0.14143500  0.65403219     0.15000
H520        H  0.07549067  0.18510917  0.53725226     0.14800
C521        C  0.97996485  0.32057873  0.86654224    -0.18100
C522        C  0.98125909  0.34351430  0.90071773    -0.20200
C523        C  0.99035576  0.38435937  0.89961940     0.20400
C524        C  0.49805811  0.40241863  0.86370874    -0.03100
C525        C  0.49735237  0.37910999  0.82939910    -0.06200
C526        C  0.98809828  0.33806778  0.83088014     0.20700
C527        C  0.50613062  0.39676476  0.79369604     0.18900
C528        C  0.51461032  0.43786539  0.79250636    -0.17700
C529        C  0.51446361  0.46131571  0.82640299    -0.19900
C530        C  0.50642938  0.44377768  0.86206104     0.20400
C531        C  0.50648581  0.46688830  0.89611582    -0.32900
C532        C  0.49972804  0.44876883  0.93192057     0.01100
C533        C  0.99176799  0.40756678  0.93370880    -0.24300
C534        C  0.98753025  0.31508713  0.79671524    -0.28800
C535        C  0.49706001  0.33218272  0.76144144     0.06700
C536        C  0.50648025  0.37286531  0.75994263    -0.27500
H537        H  0.97287994  0.28904706  0.86804215     0.11400
H538        H  0.97509078  0.32934016  0.92798958     0.12600
H539        H  0.52126448  0.45188858  0.76535177     0.11600
H540        H  0.52095624  0.49306363  0.82481475     0.10900
H541        H  0.51155202  0.49912656  0.89491158     0.16300
H542        H  0.98595896  0.39409350  0.96145697     0.12200
H543        H  0.98070920  0.28338337  0.79771699     0.15000
H544        H  0.51381534  0.38581176  0.73255621     0.14800
C545        C  0.37947564  0.15700900  0.98970033    -0.18100
C546        C  0.40375665  0.13271240  0.00205773    -0.20200
C547        C  0.40986414  0.09572245  0.98338327     0.20400
C548        C  0.39128597  0.08287920  0.95202435    -0.03100
C549        C  0.36714632  0.10783793  0.93902299    -0.06200
C550        C  0.36117723  0.14497148  0.95814795     0.20700
C551        C  0.34947906  0.09614726  0.90640265     0.18900
C552        C  0.35556427  0.05898035  0.88787867    -0.17700
C553        C  0.37908843  0.03376807  0.90133948    -0.19900
C554        C  0.39724809  0.04557903  0.93317101     0.20400
C555        C  0.42182441  0.02148303  0.94580381    -0.32900
C556        C  0.44116120  0.03530220  0.97576626     0.01100
C557        C  0.43476095  0.07193901  0.99484521    -0.24300
C558        C  0.33755455  0.16998354  0.94475656    -0.28800
C559        C  0.32059607  0.15918086  0.91167228     0.06700
C560        C  0.32657038  0.12232523  0.89248053    -0.27500
H561        H  0.37528528  0.18555192  0.00447489     0.11400
H562        H  0.41787764  0.14296713  0.02610738     0.12600
H563        H  0.34222236  0.04949986  0.86284537     0.11600
H564        H  0.38343674  0.00536231  0.88640497     0.10900
H565        H  0.42674178  0.99297688  0.93134299     0.16300
H566        H  0.44979222  0.08237480  0.01795758     0.12200
H567        H  0.33326806  0.19888238  0.95892117     0.15000
H568        H  0.31361063  0.11436497  0.86662378     0.14800
C569        C  0.14360386  0.11663159  0.99414691    -0.18100
C570        C  0.12031311  0.09114299  0.00739821    -0.20200
C571        C  0.10034401  0.07229195  0.98092994     0.20400
C572        C  0.10444790  0.07802642  0.94068509    -0.03100
C573        C  0.12726068  0.10488614  0.92736908    -0.06200
C574        C  0.14681583  0.12441514  0.95428247     0.20700
C575        C  0.12986915  0.11312242  0.88729762     0.18900
C576        C  0.11037540  0.09328093  0.86081771    -0.17700
C577        C  0.08838324  0.06564439  0.87395344    -0.19900
C578        C  0.08508018  0.05806574  0.91384834     0.20400
C579        C  0.06181245  0.03248501  0.92752688    -0.32900
C580        C  0.05546854  0.03040804  0.96757494     0.01100
C581        C  0.07544052  0.04950442  0.99406020    -0.24300
C582        C  0.16861204  0.15233568  0.94103382    -0.28800
C583        C  0.17066632  0.16194916  0.90127149     0.06700
C584        C  0.15142149  0.14173380  0.87453097    -0.27500
H585        H  0.15852823  0.13122999  0.01517219     0.11400
H586        H  0.11762403  0.08666370  0.03839167     0.12600
H587        H  0.11200081  0.09934266  0.82995117     0.11600
H588        H  0.07338225  0.05107522  0.85299381     0.10900
H589        H  0.04706878  0.01687008  0.90697233     0.16300
H590        H  0.07078988  0.04812031  0.02494589     0.12200
H591        H  0.18325351  0.16763774  0.96194378     0.15000
H592        H  0.15291822  0.14860413  0.84379579     0.14800
C593        C  0.02780150  0.15205408  0.89893667    -0.18100
C594        C  0.03089869  0.17364368  0.86420481    -0.20200
C595        C  0.01732793  0.15916095  0.82980932     0.20400
C596        C  0.00065263  0.12244985  0.83026526    -0.03100
C597        C  0.99830677  0.10010494  0.86501887    -0.06200
C598        C  0.01162558  0.11524515  0.89962862     0.20700
C599        C  0.48302861  0.06235406  0.86498384     0.18900
C600        C  0.46895983  0.04818680  0.83081732    -0.17700
C601        C  0.47025456  0.07113100  0.79670270    -0.19900
C602        C  0.48628835  0.10807811  0.79602879     0.20400
C603        C  0.48792881  0.13114803  0.76188513    -0.32900
C604        C  0.00452587  0.16768801  0.76130324     0.01100
C605        C  0.01963641  0.18112877  0.79513035    -0.24300
C606        C  0.00926405  0.09271557  0.93402303    -0.28800
C607        C  0.99595273  0.05387152  0.93339528     0.06700
C608        C  0.48280642  0.03897738  0.89886389    -0.27500
H609        H  0.03843278  0.16384600  0.92514086     0.11400
H610        H  0.04369644  0.20186437  0.86430814     0.12600
H611        H  0.45691365  0.01938504  0.83051049     0.11600
H612        H  0.45903673  0.05974551  0.77072816     0.10900
H613        H  0.47620033  0.12086262  0.73582518     0.16300
H614        H  0.03196681  0.20975096  0.79492031     0.12200
H615        H  0.01941263  0.10409488  0.96071906     0.15000
H616        H  0.47312136  0.00866226  0.89821043     0.14800
C617        C  0.37030431  0.92662609  0.12864400    -0.18100
C618        C  0.39253948  0.95347762  0.11469125    -0.20200
C619        C  0.40493092  0.94812858  0.07749107     0.20400
C620        C  0.39432933  0.91592287  0.05377962    -0.03100
C621        C  0.37159333  0.88926525  0.06760488    -0.06200
C622        C  0.35985745  0.89424330  0.10546557     0.20700
C623        C  0.36109621  0.85711923  0.04381354     0.18900
C624        C  0.37328646  0.85192416  0.00650418    -0.17700
C625        C  0.39617844  0.87789187  0.99306967    -0.19900
C626        C  0.40698284  0.90970069  0.01659090     0.20400
C627        C  0.43098361  0.93445948  0.00413198    -0.32900
C628        C  0.44227537  0.96558786  0.02808824     0.01100
C629        C  0.42844765  0.97345004  0.06404349    -0.24300
C630        C  0.33823459  0.86640457  0.11959792    -0.28800
C631        C  0.32776427  0.83429251  0.09597351     0.06700
C632        C  0.33899463  0.83024260  0.05796638    -0.27500
H633        H  0.36145536  0.93099034  0.15770616     0.11400
H634        H  0.40048598  0.97794690  0.13329811     0.12600
H635        H  0.36545433  0.82735429  0.98793892     0.11600
H636        H  0.40566785  0.87283006  0.96443917     0.10900
H637        H  0.44176041  0.92864152  0.97635337     0.16300
H638        H  0.43685698  0.99808328  0.08208882     0.12200
H639        H  0.32947086  0.86976108  0.14884641     0.15000
H640        H  0.33119108  0.80532480  0.03976464     0.14800
C641        C  0.14112715  0.87503789  0.99751017    -0.18100
C642        C  0.11642416  0.89859129  0.98482774    -0.20200
C643        C  0.09927785  0.92133696  0.01146916     0.20400
C644        C  0.10755331  0.92112573  0.05115369    -0.03100
C645        C  0.13203391  0.89666634  0.06407267    -0.06200
C646        C  0.14884005  0.87335133  0.03713287     0.20700
C647        C  0.13906144  0.89461106  0.10407942     0.18900
C648        C  0.12240848  0.91815197  0.13059711    -0.17700
C649        C  0.09868395  0.94317924  0.11767038    -0.19900
C650        C  0.09087669  0.94452249  0.07810408     0.20400
C651        C  0.06607760  0.96782537  0.06522100    -0.32900
C652        C  0.05622723  0.96570527  0.02630355     0.01100
C653        C  0.07340938  0.94316304  0.99940083    -0.24300
C654        C  0.17226846  0.84766625  0.05047641    -0.28800
C655        C  0.17831960  0.84402408  0.09049770     0.06700
C656        C  0.16194766  0.86809093  0.11701336    -0.27500
H657        H  0.15375609  0.85737476  0.97641926     0.11400
H658        H  0.11048895  0.89861135  0.95421823     0.12600
H659        H  0.12754733  0.91691048  0.16141039     0.11600
H660        H  0.08595507  0.96074375  0.13874757     0.10900
H661        H  0.05363899  0.98637931  0.08576516     0.16300
H662        H  0.06608141  0.94176972  0.96928047     0.12200
H663        H  0.18457226  0.82881140  0.02999016     0.15000
H664        H  0.16661348  0.86546761  0.14789391     0.14800
C665        C  0.01473816  0.84172808  0.09831181    -0.18100
C666        C  0.01619548  0.81892824  0.13252498    -0.20200
C667        C  0.01013499  0.83714952  0.16858322     0.20400
C668        C  0.00267538  0.87878198  0.17034339    -0.03100
C669        C  0.00165295  0.90190873  0.13588580    -0.06200
C670        C  0.00747060  0.88318068  0.09965275     0.20700
C671        C  0.49474373  0.94370111  0.13769316     0.18900
C672        C  0.48871844  0.96193730  0.17375223    -0.17700
C673        C  0.48911499  0.93881478  0.20784194    -0.19900
C674        C  0.49595031  0.89720042  0.20646875     0.20400
C675        C  0.49586064  0.87353675  0.24042705    -0.32900
C676        C  0.00343832  0.83218749  0.23865683     0.01100
C677        C  0.01096101  0.81432883  0.20286328    -0.24300
C678        C  0.00595673  0.90625486  0.06546361    -0.28800
C679        C  0.99930046  0.94784890  0.06728572     0.06700
C680        C  0.49402025  0.96648445  0.10339140    -0.27500
H681        H  0.01933325  0.82694290  0.07079545     0.11400
H682        H  0.02182530  0.78692706  0.13075750     0.12600
H683        H  0.48340631  0.99402991  0.17554140     0.11600
H684        H  0.48405030  0.95347353  0.23528195     0.10900
H685        H  0.49006077  0.88714754  0.26814286     0.16300
H686        H  0.01640752  0.78220033  0.20160982     0.12200
H687        H  0.01034369  0.89220586  0.03751988     0.15000
H688        H  0.48951912  0.99885046  0.10460192     0.14800
C689        C  0.49905041  0.97305287  0.03160785     0.02100
C690        C  0.97080955  0.98636051  0.01634300     0.02100
C691        C  0.97011520  0.01413294  0.98544780     0.02100
C692        C  0.99762430  0.02687355  0.96791316     0.02100
C693        C  0.52623718  0.01256569  0.98221550     0.02100
C694        C  0.52683981  0.98491452  0.01383135     0.02100
Fe695      Fe  0.96274182  0.24429911  0.67568694     1.65800
Fe696      Fe  0.53955213  0.25641719  0.67637363     1.73200
Fe697      Fe  0.00107428  0.25052185  0.58975368     1.54400
O698        O  0.97254373  0.20068107  0.58462765    -0.81900
O699        O  0.55849958  0.29796963  0.63881067    -0.80200
O700        O  0.94375829  0.20311942  0.63758036    -0.84400
O701        O  0.94308807  0.29241814  0.64620578    -0.79300
O702        O  0.53825303  0.21154543  0.58736087    -0.81000
O703        O  0.52313864  0.30472525  0.70789446    -0.83800
C704        C  0.94451349  0.30383070  0.61091832     0.97000
C705        C  0.95013851  0.18841023  0.60463014     1.04400
O706        O  0.50113635  0.25040445  0.64701875    -1.12800
O707        O  0.52652503  0.21674191  0.72002477    -0.75200
O708        O  0.97916032  0.19590070  0.70712377    -0.78700
O709        O  0.96384401  0.28949241  0.58694434    -0.79400
C710        C  0.50356389  0.19433163  0.72701569     0.95900
O711        O  0.97573930  0.28355972  0.71962029    -0.77300
O712        O  0.55919610  0.20848701  0.64677266    -0.82500
C713        C  0.55184433  0.31285916  0.60597598     0.98500
C714        C  0.55759139  0.19708873  0.61144273     1.04400
O715        O  0.52950394  0.30040347  0.58566674    -0.78200
C716        C  0.99856934  0.30603719  0.72711903     1.02700
C717        C  0.99875052  0.47445673  0.96704322     0.02100
C718        C  0.97017600  0.48632574  0.98263691     0.02100
C719        C  0.96930168  0.51368726  0.01429639     0.02100
C720        C  0.99706615  0.52767371  0.03098665     0.02100
C721        C  0.52545666  0.51611091  0.01491262     0.02100
C722        C  0.52640629  0.48837640  0.98383493     0.02100
Fe723      Fe  0.96075346  0.75567386  0.32387058     1.65800
Fe724      Fe  0.53761334  0.74408154  0.32442864     1.73200
Fe725      Fe  0.99903256  0.74913611  0.41043987     1.54400
O726        O  0.97172847  0.80039554  0.41469878    -0.81900
O727        O  0.55588946  0.70180844  0.36195993    -0.80200
O728        O  0.94238355  0.79690811  0.36188502    -0.84400
O729        O  0.94082216  0.70740022  0.35309608    -0.79300
O730        O  0.53712078  0.78654044  0.41447462    -0.81000
O731        O  0.52115320  0.69622617  0.29157395    -0.83800
C732        C  0.94183318  0.69691561  0.38866763     0.97000
C733        C  0.94931839  0.81263643  0.39434061     1.04400
O734        O  0.49913861  0.74964161  0.35308072    -1.12800
O735        O  0.52502783  0.78424235  0.28102004    -0.75200
O736        O  0.97725700  0.80414435  0.29212927    -0.78700
O737        O  0.96091449  0.71181447  0.41283174    -0.79400
C738        C  0.50200587  0.80615007  0.27321366     0.95900
O739        O  0.97339806  0.71632465  0.28026247    -0.77300
O740        O  0.55731682  0.79186703  0.35511006    -0.82500
C741        C  0.54870495  0.68558597  0.39400614     0.98500
C742        C  0.55613498  0.80200147  0.39081814     1.04400
O743        O  0.52626518  0.69774027  0.41413593    -0.78200
C744        C  0.99631082  0.69435240  0.27253490     1.02700
C745        C  0.75090244  0.02726386  0.53140696     0.02100
C746        C  0.72238143  0.01424481  0.51619441     0.02100
C747        C  0.72157685  0.98627729  0.48508811     0.02100
C748        C  0.74923610  0.97278118  0.46835092     0.02100
C749        C  0.77770925  0.98551835  0.48385120     0.02100
C750        C  0.77846548  0.01384563  0.51455155     0.02100
Fe751      Fe  0.78803949  0.74581341  0.17559264     1.65800
Fe752      Fe  0.71135572  0.75453714  0.17542067     1.73200
Fe753      Fe  0.74932117  0.75033707  0.08951561     1.54400
O754        O  0.78784877  0.78694473  0.08654821    -0.81900
O755        O  0.69292712  0.70540717  0.14617821    -0.80200
O756        O  0.80596652  0.79551476  0.14686986    -0.84400
O757        O  0.80759757  0.70614796  0.13661102    -0.79300
O758        O  0.72247233  0.80203260  0.08597566    -0.81000
O759        O  0.72560635  0.71597255  0.21949331    -0.83800
C760        C  0.79960731  0.68831379  0.10548675     0.97000
C761        C  0.80575987  0.80407448  0.11082960     1.04400
O762        O  0.74956469  0.75021775  0.14664063    -1.12800
O763        O  0.72675766  0.80398703  0.20661485    -0.75200
O764        O  0.77407362  0.78368694  0.22021567    -0.78700
O765        O  0.77601483  0.69849826  0.08624017    -0.79400
C766        C  0.75088064  0.80557230  0.22704088     0.95900
O767        O  0.77299955  0.69596088  0.20637633    -0.77300
O768        O  0.69161589  0.79450808  0.13667936    -0.82500
C769        C  0.69249932  0.69742493  0.11000874     0.98500
C770        C  0.69894977  0.81195906  0.10522719     1.04400
O771        O  0.71057809  0.71405970  0.08589645    -0.78200
C772        C  0.74879487  0.69395677  0.22637527     1.02700
C773        C  0.75036506  0.52615054  0.46748350     0.02100
C774        C  0.77817461  0.51238266  0.48412952     0.02100
C775        C  0.77767067  0.48533095  0.51597732     0.02100
C776        C  0.74928507  0.47366369  0.53216307     0.02100
C777        C  0.72161746  0.48785048  0.51576221     0.02100
C778        C  0.72208613  0.51499163  0.48416052     0.02100
Fe779      Fe  0.78587127  0.24410540  0.82407426     1.65800
Fe780      Fe  0.70909232  0.25503607  0.82363607     1.73200
Fe781      Fe  0.74746554  0.24941358  0.91011525     1.54400
O782        O  0.77659790  0.20034659  0.91480555    -0.81900
O783        O  0.68983001  0.29660161  0.86129179    -0.80200
O784        O  0.80589125  0.20418753  0.86241022    -0.84400
O785        O  0.80452813  0.29335627  0.85311781    -0.79300
O786        O  0.71107631  0.20892660  0.91235876    -0.81000
O787        O  0.72521511  0.30349164  0.79210130    -0.83800
C788        C  0.80289451  0.30487994  0.88842083     0.97000
C789        C  0.79939227  0.18905512  0.89507424     1.04400
O790        O  0.74745861  0.24954124  0.85289665    -1.12800
O791        O  0.72273601  0.21553054  0.77995965    -0.75200
O792        O  0.76996219  0.19468824  0.79356766    -0.78700
O793        O  0.78404967  0.28965872  0.91257723    -0.79400
C794        C  0.74579834  0.19327566  0.77322962     0.95900
O795        O  0.77223664  0.28200665  0.77928823    -0.77300
O796        O  0.68984223  0.20673781  0.85312008    -0.82500
C797        C  0.69613453  0.31128048  0.89443037     0.98500
C798        C  0.69191258  0.19427548  0.88805184     1.04400
O799        O  0.71826394  0.29855981  0.91490309    -0.78200
C800        C  0.74934725  0.30431147  0.77197064     1.02700
C801        C  0.76689034  0.34214057  0.59796402    -0.18100
C802        C  0.76804634  0.31903820  0.63203580    -0.20200
C803        C  0.75936569  0.33613627  0.66772170     0.20400
C804        C  0.74944304  0.37686081  0.66920016    -0.03100
C805        C  0.74895889  0.40038475  0.63502492    -0.06200
C806        C  0.75744276  0.38282656  0.59915303     0.20700
C807        C  0.74022892  0.44156120  0.63683664     0.18900
C808        C  0.73117955  0.45853158  0.67238159    -0.17700
C809        C  0.73075813  0.43485993  0.70605610    -0.19900
C810        C  0.73999757  0.39410670  0.70482710     0.20400
C811        C  0.73993532  0.37027205  0.73854952    -0.32900
C812        C  0.75029702  0.33004004  0.73725165     0.01100
C813        C  0.76022016  0.31319881  0.70194448    -0.24300
C814        C  0.75650538  0.40640077  0.56524177    -0.28800
C815        C  0.74841183  0.44758587  0.56722186     0.06700
C816        C  0.74092246  0.46512794  0.60310779    -0.27500
H817        H  0.77359501  0.32827802  0.57072760     0.11400
H818        H  0.77556697  0.28772712  0.63045332     0.12600
H819        H  0.72424551  0.49007265  0.67408162     0.11600
H820        H  0.72347430  0.44853038  0.73313624     0.10900
H821        H  0.73222575  0.38304223  0.76586698     0.16300
H822        H  0.76771689  0.28181177  0.70098333     0.12200
H823        H  0.76275552  0.39320292  0.53750877     0.15000
H824        H  0.73575013  0.49728581  0.60464058     0.14800
C825        C  0.72915314  0.67849239  0.36566593    -0.18100
C826        C  0.73053538  0.65576843  0.39990258    -0.20200
C827        C  0.74066730  0.61539655  0.39911270     0.20400
C828        C  0.74944581  0.59765894  0.36343315    -0.03100
C829        C  0.74880756  0.62089842  0.32905576    -0.06200
C830        C  0.73834984  0.66137758  0.33022701     0.20700
C831        C  0.75872569  0.60372041  0.29360094     0.18900
C832        C  0.76833133  0.56306398  0.29275133    -0.17700
C833        C  0.76801086  0.53960025  0.32664326    -0.19900
C834        C  0.75873760  0.55668878  0.36207567     0.20400
C835        C  0.75845891  0.53355521  0.39617568    -0.32900
C836        C  0.75083550  0.55147319  0.43190636     0.01100
C837        C  0.74205814  0.59238770  0.43330304    -0.24300
C838        C  0.73753565  0.68419888  0.29600013    -0.28800
C839        C  0.74809342  0.66771658  0.26088064     0.06700
C840        C  0.75891925  0.62760619  0.25976999    -0.27500
H841        H  0.72116450  0.70961178  0.36695832     0.11400
H842        H  0.72354058  0.66971346  0.42698046     0.12600
H843        H  0.77590435  0.54934163  0.26582857     0.11600
H844        H  0.77531125  0.50819202  0.32522825     0.10900
H845        H  0.76417388  0.50154395  0.39507884     0.16300
H846        H  0.73567323  0.60584486  0.46087522     0.12200
H847        H  0.72956908  0.71538101  0.29685716     0.15000
H848        H  0.76704775  0.61498924  0.23259486     0.14800
C849        C  0.73583881  0.96055335  0.32697652    -0.18100
C850        C  0.73591901  0.93733681  0.29291635    -0.20200
C851        C  0.74294481  0.89579740  0.29427739     0.20400
C852        C  0.74980809  0.87740493  0.33039551    -0.03100
C853        C  0.74907162  0.90061287  0.36482072    -0.06200
C854        C  0.74234660  0.94245250  0.36295307     0.20700
C855        C  0.75529175  0.88203425  0.40103065     0.18900
C856        C  0.76237078  0.84051908  0.40239834    -0.17700
C857        C  0.76357521  0.81762207  0.36817326    -0.19900
C858        C  0.75743501  0.83582834  0.33211862     0.20400
C859        C  0.75863494  0.81315674  0.29774376    -0.32900
C860        C  0.75131957  0.83113361  0.26192314     0.01100
C861        C  0.74319964  0.87226668  0.26023670    -0.24300
C862        C  0.74249397  0.96551175  0.39708193    -0.28800
C863        C  0.74830650  0.94710721  0.43309479     0.06700
C864        C  0.75456324  0.90542109  0.43511300    -0.27500
H865        H  0.73057128  0.99265902  0.32520627     0.11400
H866        H  0.73067168  0.95191810  0.26547930     0.12600
H867        H  0.76719275  0.82582818  0.42990656     0.11600
H868        H  0.76925018  0.78563196  0.36989864     0.10900
H869        H  0.76446489  0.78115169  0.29887384     0.16300
H870        H  0.73749322  0.88589571  0.23246878     0.12200
H871        H  0.73830300  0.99795111  0.39579719     0.15000
H872        H  0.75938043  0.89159830  0.46305578     0.14800
C873        C  0.73242584  0.15783257  0.59820361    -0.18100
C874        C  0.73019314  0.18021874  0.63264203    -0.20200
C875        C  0.73826436  0.16261321  0.66836542     0.20400
C876        C  0.74896168  0.12224076  0.66950656    -0.03100
C877        C  0.75051465  0.09940520  0.63492990    -0.06200
C878        C  0.74233668  0.11735575  0.59906198     0.20700
C879        C  0.75975922  0.05842781  0.63636157     0.18900
C880        C  0.76863439  0.04113684  0.67188899    -0.17700
C881        C  0.76807929  0.06421609  0.70601226    -0.19900
C882        C  0.75796555  0.10462074  0.70521236     0.20400
C883        C  0.75669541  0.12777055  0.73941531    -0.32900
C884        C  0.74540552  0.16759573  0.73839755     0.01100
C885        C  0.73602674  0.18475118  0.70296319    -0.24300
C886        C  0.74377877  0.09426491  0.56485452    -0.28800
C887        C  0.75201675  0.05316316  0.56654528     0.06700
C888        C  0.75949696  0.03529478  0.60231192    -0.27500
H889        H  0.72602842  0.17200757  0.57096097     0.11400
H890        H  0.72219853  0.21133385  0.63134309     0.12600
H891        H  0.77604635  0.00977205  0.67326189     0.11600
H892        H  0.77514057  0.05029602  0.73311253     0.10900
H893        H  0.76418680  0.11484362  0.76681232     0.16300
H894        H  0.72801355  0.21591788  0.70221341     0.12200
H895        H  0.73754300  0.10764530  0.53716245     0.15000
H896        H  0.76479574  0.00315680  0.60353090     0.14800
C897        C  0.64586307  0.54997933  0.38212879    -0.18100
C898        C  0.62117702  0.57369169  0.36962631    -0.20200
C899        C  0.60608413  0.59961972  0.39567900     0.20400
C900        C  0.61530804  0.60066862  0.43501059    -0.03100
C901        C  0.64053825  0.57728373  0.44747279    -0.06200
C902        C  0.65606612  0.55207547  0.42081819     0.20700
C903        C  0.65080922  0.58017478  0.48630189     0.18900
C904        C  0.63513040  0.60503102  0.51266888    -0.17700
C905        C  0.60989181  0.62772674  0.50045586    -0.19900
C906        C  0.60011053  0.62630696  0.46158770     0.20400
C907        C  0.57641708  0.65156396  0.44846744    -0.32900
C908        C  0.56854278  0.65270592  0.40886844     0.01100
C909        C  0.58290721  0.62588232  0.38279887    -0.24300
C910        C  0.68196249  0.53031691  0.43310131    -0.28800
C911        C  0.69301531  0.53455176  0.47134347     0.06700
C912        C  0.67706602  0.55906380  0.49784563    -0.27500
H913        H  0.65744185  0.53074756  0.36130624     0.11400
H914        H  0.61426242  0.57234128  0.33937116     0.12600
H915        H  0.64266746  0.60738387  0.54263367     0.11600
H916        H  0.59850247  0.64723049  0.52121837     0.10900
H917        H  0.56560218  0.67242267  0.46855601     0.16300
H918        H  0.57676142  0.62653952  0.35223503     0.12200
H919        H  0.69402916  0.51102689  0.41277685     0.15000
H920        H  0.68562688  0.56238622  0.52730863     0.14800
C921        C  0.87369010  0.64965875  0.49269526    -0.18100
C922        C  0.85138707  0.62301997  0.50660260    -0.20200
C923        C  0.84140120  0.59020495  0.48375838     0.20400
C924        C  0.85427552  0.58378660  0.44671022    -0.03100
C925        C  0.87635481  0.61118660  0.43233188    -0.06200
C926        C  0.88610458  0.64419324  0.45553421     0.20700
C927        C  0.88826071  0.60597013  0.39456867     0.18900
C928        C  0.87858765  0.57267311  0.37203216    -0.17700
C929        C  0.85708575  0.54506983  0.38657261    -0.19900
C930        C  0.84456498  0.55057995  0.42370117     0.20400
C931        C  0.82164386  0.52452348  0.43763746    -0.32900
C932        C  0.80720244  0.53278007  0.47316975     0.01100
C933        C  0.81787083  0.56473851  0.49663211    -0.24300
C934        C  0.90785655  0.67144826  0.44106735    -0.28800
C935        C  0.91945953  0.66695979  0.40328426     0.06700
C936        C  0.90944289  0.63428571  0.38003028    -0.27500
H937        H  0.88092570  0.67490538  0.51080978     0.11400
H938        H  0.84172039  0.62832504  0.53509374     0.12600
H939        H  0.88754505  0.56808321  0.34305681     0.11600
H940        H  0.84977004  0.51987663  0.36844292     0.10900
H941        H  0.81397588  0.49912478  0.42006547     0.16300
H942        H  0.80676938  0.57087292  0.52413575     0.12200
H943        H  0.91528094  0.69683430  0.45893032     0.15000
H944        H  0.91846298  0.63063217  0.35094287     0.14800
C945        C  0.89095354  0.87475422  0.50108854    -0.18100
C946        C  0.86608265  0.89803903  0.51332443    -0.20200
C947        C  0.84934883  0.92123586  0.48650105     0.20400
C948        C  0.85813025  0.92178713  0.44712206    -0.03100
C949        C  0.88290906  0.89778216  0.43467042    -0.06200
C950        C  0.89927291  0.87391495  0.46175729     0.20700
C951        C  0.89061199  0.89660053  0.39493583     0.18900
C952        C  0.87430705  0.92055385  0.36826977    -0.17700
C953        C  0.85011380  0.94493502  0.38073120    -0.19900
C954        C  0.84161475  0.94538912  0.41998309     0.20400
C955        C  0.81639973  0.96811488  0.43239258    -0.32900
C956        C  0.80661702  0.96591527  0.47114816     0.01100
C957        C  0.82345525  0.94291844  0.49812573    -0.24300
C958        C  0.92275206  0.84830988  0.44878381    -0.28800
C959        C  0.92932486  0.84532191  0.40895617     0.06700
C960        C  0.91366197  0.87027679  0.38235011    -0.27500
H961        H  0.90323425  0.85663739  0.52225466     0.11400
H962        H  0.85968459  0.89749038  0.54370523     0.12600
H963        H  0.87999370  0.91998850  0.33765670     0.11600
H964        H  0.83761939  0.96274837  0.35952545     0.10900
H965        H  0.80380016  0.98648671  0.41174899     0.16300
H966        H  0.81584265  0.94113082  0.52801729     0.12200
H967        H  0.93454359  0.82883332  0.46931154     0.15000
H968        H  0.91877935  0.86819754  0.35159871     0.14800
C969        C  0.64647638  0.87809588  0.50948402    -0.18100
C970        C  0.62368130  0.85170505  0.49597109    -0.20200
C971        C  0.61134104  0.85634843  0.45851528     0.20400
C972        C  0.62158054  0.88846483  0.43472667    -0.03100
C973        C  0.64421633  0.91557067  0.44864584    -0.06200
C974        C  0.65707770  0.90986198  0.48594004     0.20700
C975        C  0.65456297  0.94766196  0.42486654     0.18900
C976        C  0.64194167  0.95259025  0.38759238    -0.17700
C977        C  0.61984219  0.92535412  0.37357647    -0.19900
C978        C  0.60972951  0.89294817  0.39673519     0.20400
C979        C  0.58835314  0.86461325  0.38242019    -0.32900
C980        C  0.57812600  0.83247756  0.40597045     0.01100
C981        C  0.58937719  0.82898207  0.44419159    -0.24300
C982        C  0.68113978  0.93497008  0.49839499    -0.28800
C983        C  0.69239865  0.96580578  0.47419866     0.06700
C984        C  0.67815517  0.97320115  0.43821457    -0.27500
H985        H  0.65608614  0.87334968  0.53819541     0.11400
H986        H  0.61607436  0.82719823  0.51458838     0.12600
H987        H  0.64966144  0.97699409  0.36892745     0.11600
H988        H  0.61087930  0.92940181  0.34443537     0.10900
H989        H  0.57954003  0.86764312  0.35306712     0.16300
H990        H  0.58170975  0.80413503  0.46239736     0.12200
H991        H  0.69211323  0.92943700  0.52620738     0.15000
H992        H  0.68640350  0.99759985  0.41994612     0.14800
C993        C  0.63190091  0.43342728  0.87592264    -0.18100
C994        C  0.60849847  0.45902645  0.88885122    -0.20200
C995        C  0.59539093  0.45332768  0.92561660     0.20400
C996        C  0.60668895  0.42231947  0.95007406    -0.03100
C997        C  0.63077800  0.39708024  0.93737352    -0.06200
C998        C  0.64293412  0.40203736  0.89974370     0.20700
C999        C  0.64197462  0.36602884  0.96185378     0.18900
C1000       C  0.62919628  0.36073602  0.99884049    -0.17700
C1001       C  0.60495252  0.38517802  0.01108871    -0.19900
C1002       C  0.59333554  0.41572856  0.98678953     0.20400
C1003       C  0.56793911  0.43881844  0.99798676    -0.32900
C1004       C  0.55591974  0.46876156  0.97325235     0.01100
C1005       C  0.57054811  0.47710005  0.93784802    -0.24300
C1006       C  0.66513004  0.37467371  0.88620484    -0.28800
C1007       C  0.67590925  0.34318153  0.91022539     0.06700
C1008       C  0.66491887  0.33984085  0.94839184    -0.27500
H1009       H  0.64108485  0.43783151  0.84704300     0.11400
H1010       H  0.60010660  0.48262699  0.86967523     0.12600
H1011       H  0.63747892  0.33702745  0.01797005     0.11600
H1012       H  0.59501344  0.37982396  0.03940867     0.10900
H1013       H  0.55679515  0.43266627  0.02544723     0.16300
H1014       H  0.56193783  0.50106403  0.91930915     0.12200
H1015       H  0.67366325  0.37736291  0.85678180     0.15000
H1016       H  0.67296021  0.31533426  0.96679686     0.14800
C1017       C  0.87816416  0.41437282  0.86329918    -0.18100
C1018       C  0.90090040  0.44097518  0.87671332    -0.20200
C1019       C  0.90831458  0.44278114  0.91641275     0.20400
C1020       C  0.89219374  0.41820607  0.94296473    -0.03100
C1021       C  0.86889734  0.39193035  0.92952765    -0.06200
C1022       C  0.86220479  0.38948918  0.88942134     0.20700
C1023       C  0.85288464  0.36733845  0.95614316     0.18900
C1024       C  0.86003005  0.36950544  0.99589103    -0.17700
C1025       C  0.88347952  0.39496065  0.00910258    -0.19900
C1026       C  0.89990834  0.41901168  0.98282881     0.20400
C1027       C  0.92464604  0.44265495  0.99552188    -0.32900
C1028       C  0.94143822  0.46619678  0.96909440     0.01100
C1029       C  0.93225538  0.46758879  0.92987597    -0.24300
C1030       C  0.84017455  0.36158653  0.87611343    -0.28800
C1031       C  0.82446324  0.33647930  0.90247309     0.06700
C1032       C  0.83057330  0.34020331  0.94250629    -0.27500
H1033       H  0.87327496  0.41296260  0.83242461     0.11400
H1034       H  0.91315694  0.45948225  0.85592340     0.12600
H1035       H  0.84790081  0.35085991  0.01668917     0.11600
H1036       H  0.88904678  0.39542155  0.03982206     0.10900
H1037       H  0.93161500  0.44166741  0.02579453     0.16300
H1038       H  0.94469340  0.48651028  0.90962067     0.12200
H1039       H  0.83548198  0.35913769  0.84522964     0.15000
H1040       H  0.81875116  0.32087125  0.96304558     0.14800
C1041       C  0.61963449  0.65565042  0.00775824    -0.18100
C1042       C  0.59640074  0.62995023  0.99426747    -0.20200
C1043       C  0.58691804  0.59664185  0.01661253     0.20400
C1044       C  0.60092800  0.58912575  0.05292484    -0.03100
C1045       C  0.62387266  0.61559253  0.06692961    -0.06200
C1046       C  0.63344496  0.64877879  0.04404848     0.20700
C1047       C  0.63704409  0.60901406  0.10392274     0.18900
C1048       C  0.62749817  0.57570928  0.12625329    -0.17700
C1049       C  0.60524189  0.54893291  0.11197830    -0.19900
C1050       C  0.59180554  0.55539720  0.07541626     0.20400
C1051       C  0.56886392  0.52937258  0.06136615    -0.32900
C1052       C  0.55361006  0.53827565  0.02646724     0.01100
C1053       C  0.56313191  0.57133608  0.00380951    -0.24300
C1054       C  0.65647671  0.67468182  0.05800555    -0.28800
C1055       C  0.66943559  0.66857981  0.09501087     0.06700
C1056       C  0.65944798  0.63590869  0.11795593    -0.27500
H1057       H  0.62662499  0.68112383  0.98994746     0.11400
H1058       H  0.58582359  0.63614714  0.96637079     0.12600
H1059       H  0.63733414  0.57027890  0.15472609     0.11600
H1060       H  0.59824589  0.52344307  0.12976355     0.10900
H1061       H  0.56205890  0.50313997  0.07821214     0.16300
H1062       H  0.55135264  0.57791877  0.97674833     0.12200
H1063       H  0.66378540  0.70026485  0.04049870     0.15000
H1064       H  0.66939470  0.63118175  0.14651027     0.14800
C1065       C  0.85428034  0.62129395  0.99815378    -0.18100
C1066       C  0.87854087  0.59715573  0.98545723    -0.20200
C1067       C  0.89595040  0.57472238  0.01217467     0.20400
C1068       C  0.88828716  0.57556711  0.05194178    -0.03100
C1069       C  0.86423483  0.60062328  0.06486777    -0.06200
C1070       C  0.84730850  0.62386302  0.03784616     0.20700
C1071       C  0.85792149  0.60360333  0.10493333     0.18900
C1072       C  0.87470340  0.58011071  0.13150809    -0.17700
C1073       C  0.89808484  0.55457153  0.11859216    -0.19900
C1074       C  0.90536397  0.55256748  0.07896092     0.20400
C1075       C  0.93021604  0.52938741  0.06607155    -0.32900
C1076       C  0.93948507  0.53117688  0.02701171     0.01100
C1077       C  0.92168201  0.55292828  0.00007286    -0.24300
C1078       C  0.82461929  0.65053555  0.05112714    -0.28800
C1079       C  0.81944726  0.65530935  0.09113560     0.06700
C1080       C  0.83574820  0.63115004  0.11780679    -0.27500
H1081       H  0.84151477  0.63885792  0.97702335     0.11400
H1082       H  0.88403472  0.59659992  0.95478597     0.12600
H1083       H  0.87006302  0.58197407  0.16236664     0.11600
H1084       H  0.91105306  0.53727298  0.13972932     0.10900
H1085       H  0.94342344  0.51179878  0.08673770     0.16300
H1086       H  0.92865924  0.55418785  0.96989952     0.12200
H1087       H  0.81228810  0.66933861  0.03053399     0.15000
H1088       H  0.83165607  0.63456013  0.14870495     0.14800
C1089       C  0.97049799  0.67721338  0.13476410    -0.18100
C1090       C  0.97187489  0.65479850  0.10027879    -0.20200
C1091       C  0.98397469  0.61539147  0.10033367     0.20400
C1092       C  0.99441574  0.59815839  0.13557500    -0.03100
C1093       C  0.99378729  0.62112791  0.17011553    -0.06200
C1094       C  0.98167303  0.66078451  0.16964921     0.20700
C1095       C  0.50564878  0.60462399  0.20496426     0.18900
C1096       C  0.51692506  0.56476405  0.20520219    -0.17700
C1097       C  0.51657286  0.54146954  0.17119346    -0.19900
C1098       C  0.50559806  0.55803235  0.13628706     0.20400
C1099       C  0.50564303  0.53522164  0.10202782    -0.32900
C1100       C  0.99666746  0.55281525  0.06666675     0.01100
C1101       C  0.98588227  0.59288772  0.06583211    -0.24300
C1102       C  0.98151116  0.68360931  0.20393702    -0.28800
C1103       C  0.99432501  0.66792740  0.23827322     0.06700
C1104       C  0.50636264  0.62849607  0.23876157    -0.27500
H1105       H  0.96113827  0.70766333  0.13404270     0.11400
H1106       H  0.96349688  0.66827651  0.07357700     0.12600
H1107       H  0.52597425  0.55159794  0.23169342     0.11600
H1108       H  0.52531411  0.51070015  0.17204973     0.10900
H1109       H  0.51275013  0.50369996  0.10268065     0.16300
H1110       H  0.97836501  0.60597641  0.03852402     0.12200
H1111       H  0.97255553  0.71432549  0.20358956     0.15000
H1112       H  0.51611504  0.61649948  0.26539245     0.14800
C1113       C  0.61871165  0.36065910  0.50153697    -0.18100
C1114       C  0.64302087  0.38487779  0.48912703    -0.20200
C1115       C  0.65471143  0.41562124  0.51326562     0.20400
C1116       C  0.64136189  0.42279509  0.54989409    -0.03100
C1117       C  0.61725007  0.39780585  0.56275147    -0.06200
C1118       C  0.60599046  0.36648006  0.53846924     0.20700
C1119       C  0.60515711  0.40323853  0.60036564     0.18900
C1120       C  0.61625194  0.43489048  0.62397955    -0.17700
C1121       C  0.63966428  0.46035424  0.61082121    -0.19900
C1122       C  0.65272618  0.45409227  0.57413286     0.20400
C1123       C  0.67766301  0.47749379  0.56179171    -0.32900
C1124       C  0.69233696  0.46828749  0.52667696     0.01100
C1125       C  0.68024494  0.43827033  0.50204817    -0.24300
C1126       C  0.58300143  0.34055777  0.55208395    -0.28800
C1127       C  0.57203454  0.34449726  0.59015249     0.06700
C1128       C  0.58291600  0.37608965  0.61406849    -0.27500
H1129       H  0.61033878  0.33671508  0.48260695     0.11400
H1130       H  0.65298247  0.37916048  0.46087488     0.12600
H1131       H  0.60709416  0.43961452  0.65283403     0.11600
H1132       H  0.64814803  0.48420470  0.62978336     0.10900
H1133       H  0.68630237  0.50182050  0.58000944     0.16300
H1134       H  0.69141696  0.43177232  0.47466618     0.12200
H1135       H  0.57488249  0.31580084  0.53389581     0.15000
H1136       H  0.57439786  0.37903586  0.64348328     0.14800
C1137       C  0.88294048  0.36146403  0.50401343    -0.18100
C1138       C  0.85992694  0.38737039  0.49064563    -0.20200
C1139       C  0.84537694  0.41417837  0.51629158     0.20400
C1140       C  0.85414572  0.41503692  0.55581570    -0.03100
C1141       C  0.87710987  0.38844684  0.56943208    -0.06200
C1142       C  0.89161090  0.36166349  0.54332585     0.20700
C1143       C  0.88521831  0.38824093  0.60919041     0.18900
C1144       C  0.87060574  0.41508587  0.63482741    -0.17700
C1145       C  0.84806044  0.44174800  0.62124908    -0.19900
C1146       C  0.83958172  0.44187773  0.58183911     0.20400
C1147       C  0.81618550  0.46740683  0.56817564    -0.32900
C1148       C  0.80639186  0.46519163  0.52918965     0.01100
C1149       C  0.82155436  0.43916634  0.50331801    -0.24300
C1150       C  0.91420180  0.33509728  0.55702394    -0.28800
C1151       C  0.92211204  0.33414818  0.59668913     0.06700
C1152       C  0.90749889  0.36087240  0.62262905    -0.27500
H1153       H  0.89376123  0.34095383  0.48364236     0.11400
H1154       H  0.85337972  0.38627333  0.46024948     0.12600
H1155       H  0.87651510  0.41533497  0.66544424     0.11600
H1156       H  0.83697107  0.46192463  0.64168572     0.10900
H1157       H  0.80456173  0.48756236  0.58815188     0.16300
H1158       H  0.81381756  0.43711502  0.47338928     0.12200
H1159       H  0.92502933  0.31428091  0.53691091     0.15000
H1160       H  0.91346818  0.36036268  0.65324213     0.14800
C1161       C  0.85705981  0.11739932  0.48773897    -0.18100
C1162       C  0.88171744  0.14135119  0.50007833    -0.20200
C1163       C  0.89465392  0.13570196  0.53707338     0.20400
C1164       C  0.88303020  0.10503724  0.56160733    -0.03100
C1165       C  0.85861188  0.08027287  0.54881429    -0.06200
C1166       C  0.84522836  0.08699646  0.51197913     0.20700
C1167       C  0.84715863  0.04940091  0.57322247     0.18900
C1168       C  0.86005178  0.04372511  0.61021799    -0.17700
C1169       C  0.88369435  0.06900012  0.62331099    -0.19900
C1170       C  0.89522246  0.09984282  0.59932784     0.20400
C1171       C  0.91809526  0.12633526  0.61276519    -0.32900
C1172       C  0.92951047  0.15715288  0.58859477     0.01100
C1173       C  0.91828092  0.16104871  0.55048583    -0.24300
C1174       C  0.81967849  0.06404001  0.50059321    -0.28800
C1175       C  0.80774956  0.03404488  0.52524803     0.06700
C1176       C  0.82241654  0.02559745  0.56067596    -0.27500
H1177       H  0.84706822  0.12289302  0.45936404     0.11400
H1178       H  0.89028554  0.16485503  0.48096572     0.12600
H1179       H  0.85137569  0.02032862  0.62937599     0.11600
H1180       H  0.89282853  0.06460499  0.65232154     0.10900
H1181       H  0.92670198  0.12350558  0.64224651     0.16300
H1182       H  0.92671140  0.18532949  0.53212621     0.12200
H1183       H  0.80848692  0.07014062  0.47303444     0.15000
H1184       H  0.81395501  0.00138496  0.57897127     0.14800
C1185       C  0.63177733  0.08615884  0.63551061    -0.18100
C1186       C  0.65393404  0.05911440  0.62183299    -0.20200
C1187       C  0.66152475  0.05816441  0.58225110     0.20400
C1188       C  0.64647224  0.08452044  0.55613718    -0.03100
C1189       C  0.62387993  0.11144164  0.56985147    -0.06200
C1190       C  0.61667191  0.11251738  0.60978858     0.20700
C1191       C  0.60888207  0.13772941  0.54365943     0.18900
C1192       C  0.61665397  0.13707603  0.50415044    -0.17700
C1193       C  0.63935543  0.11088008  0.49067718    -0.19900
C1194       C  0.65443403  0.08462132  0.51642787     0.20400
C1195       C  0.67806793  0.05952681  0.50339792    -0.32900
C1196       C  0.69373402  0.03410016  0.52940455     0.01100
C1197       C  0.68460022  0.03238120  0.56850493    -0.24300
C1198       C  0.59478399  0.14026899  0.62330171    -0.28800
C1199       C  0.57970190  0.16651821  0.59726928     0.06700
C1200       C  0.58671051  0.16469199  0.55745527    -0.27500
H1201       H  0.62656154  0.08659851  0.66626190     0.11400
H1202       H  0.66545265  0.03933794  0.64231574     0.12600
H1203       H  0.60541268  0.15718916  0.48371887     0.11600
H1204       H  0.64527326  0.11135775  0.46013497     0.10900
H1205       H  0.68530250  0.06108734  0.47333220     0.16300
H1206       H  0.69660032  0.01257209  0.58851224     0.12200
H1207       H  0.58948366  0.14143545  0.65403206     0.15000
H1208       H  0.57549058  0.18510917  0.53725197     0.14800
C1209       C  0.47996457  0.32057887  0.86654172    -0.18100
C1210       C  0.48125879  0.34351448  0.90071720    -0.20200
C1211       C  0.49035549  0.38435954  0.89961886     0.20400
C1212       C  0.99805834  0.40241847  0.86370926    -0.03100
C1213       C  0.99735257  0.37910984  0.82939962    -0.06200
C1214       C  0.48809806  0.33806793  0.83087963     0.20700
C1215       C  0.00613075  0.39676464  0.79369655     0.18900
C1216       C  0.01461041  0.43786527  0.79250688    -0.17700
C1217       C  0.01446373  0.46131557  0.82640350    -0.19900
C1218       C  0.00642956  0.44377753  0.86206156     0.20400
C1219       C  0.00648600  0.46688812  0.89611634    -0.32900
C1220       C  0.99972827  0.44876869  0.93192110     0.01100
C1221       C  0.49176772  0.40756692  0.93370828    -0.24300
C1222       C  0.48753006  0.31508724  0.79671476    -0.28800
C1223       C  0.99706013  0.33218261  0.76144190     0.06700
C1224       C  0.00648034  0.37286520  0.75994314    -0.27500
H1225       H  0.47287964  0.28904721  0.86804162     0.11400
H1226       H  0.47509045  0.32934038  0.92798906     0.12600
H1227       H  0.02126452  0.45188849  0.76535227     0.11600
H1228       H  0.02095633  0.49306351  0.82481525     0.10900
H1229       H  0.01155215  0.49912639  0.89491209     0.16300
H1230       H  0.48595868  0.39409364  0.96145645     0.12200
H1231       H  0.48070899  0.28338348  0.79771653     0.15000
H1232       H  0.01381537  0.38581168  0.73255671     0.14800
C1233       C  0.87947638  0.15700942  0.98969962    -0.18100
C1234       C  0.90375737  0.13271278  0.00205697    -0.20200
C1235       C  0.90986458  0.09572256  0.98338284     0.20400
C1236       C  0.89128614  0.08287910  0.95202426    -0.03100
C1237       C  0.86714650  0.10783785  0.93902294    -0.06200
C1238       C  0.86117768  0.14497165  0.95814760     0.20700
C1239       C  0.84947895  0.09614693  0.90640294     0.18900
C1240       C  0.85556392  0.05897979  0.88787928    -0.17700
C1241       C  0.87908807  0.03376747  0.90134001    -0.19900
C1242       C  0.89724799  0.04557868  0.93317122     0.20400
C1243       C  0.92182431  0.02148265  0.94580399    -0.32900
C1244       C  0.94116130  0.03530197  0.97576616     0.01100
C1245       C  0.93476132  0.07193904  0.99484474    -0.24300
C1246       C  0.83755499  0.16998375  0.94475627    -0.28800
C1247       C  0.82059622  0.15918076  0.91167230     0.06700
C1248       C  0.82657026  0.12232489  0.89248085    -0.27500
H1249       H  0.87528624  0.18555253  0.00447393     0.11400
H1250       H  0.91787858  0.14296769  0.02610635     0.12600
H1251       H  0.84222178  0.04949912  0.86284624     0.11600
H1252       H  0.88343615  0.00536153  0.88640571     0.10900
H1253       H  0.92674152  0.99297634  0.93134337     0.16300
H1254       H  0.94979278  0.08237495  0.01795686     0.12200
H1255       H  0.83326871  0.19888278  0.95892064     0.15000
H1256       H  0.81361029  0.11436443  0.86662433     0.14800
C1257       C  0.64360399  0.11663197  0.99414689    -0.18100
C1258       C  0.62031315  0.09114349  0.00739823    -0.20200
C1259       C  0.60034403  0.07229243  0.98093000     0.20400
C1260       C  0.60444798  0.07802673  0.94068512    -0.03100
C1261       C  0.62726083  0.10488630  0.92736905    -0.06200
C1262       C  0.64681600  0.12441535  0.95428240     0.20700
C1263       C  0.62986937  0.11312241  0.88729756     0.18900
C1264       C  0.61037561  0.09328087  0.86081771    -0.17700
C1265       C  0.58838335  0.06564447  0.87395346    -0.19900
C1266       C  0.58508023  0.05806603  0.91384841     0.20400
C1267       C  0.56181240  0.03248544  0.92752697    -0.32900
C1268       C  0.55546849  0.03040862  0.96757506     0.01100
C1269       C  0.57544048  0.04950502  0.99406031    -0.24300
C1270       C  0.66861227  0.15233580  0.94103372    -0.28800
C1271       C  0.67066657  0.16194914  0.90127133     0.06700
C1272       C  0.65142176  0.14173369  0.87453084    -0.27500
H1273       H  0.65852836  0.13123040  0.01517214     0.11400
H1274       H  0.61762402  0.08666432  0.03839170     0.12600
H1275       H  0.61200109  0.09934247  0.82995114     0.11600
H1276       H  0.57338236  0.05107528  0.85299385     0.10900
H1277       H  0.54706874  0.01687048  0.90697244     0.16300
H1278       H  0.57078983  0.04812100  0.02494602     0.12200
H1279       H  0.68325374  0.16763791  0.96194365     0.15000
H1280       H  0.65291852  0.14860391  0.84379563     0.14800
C1281       C  0.52780144  0.15205438  0.89893657    -0.18100
C1282       C  0.53089871  0.17364395  0.86420471    -0.20200
C1283       C  0.51732799  0.15916114  0.82980922     0.20400
C1284       C  0.50065269  0.12245001  0.83026519    -0.03100
C1285       C  0.49830679  0.10010518  0.86501884    -0.06200
C1286       C  0.51162553  0.11524547  0.89962859     0.20700
C1287       C  0.98302855  0.06235384  0.86498383     0.18900
C1288       C  0.96895969  0.04818665  0.83081732    -0.17700
C1289       C  0.97025441  0.07113094  0.79670275    -0.19900
C1290       C  0.98628824  0.10807803  0.79602886     0.20400
C1291       C  0.98792868  0.13114799  0.76188522    -0.32900
C1292       C  0.50452597  0.16768808  0.76130311     0.01100
C1293       C  0.51963649  0.18112890  0.79513022    -0.24300
C1294       C  0.50926393  0.09271597  0.93402304    -0.28800
C1295       C  0.49595265  0.05387190  0.93339536     0.06700
C1296       C  0.98280637  0.03897708  0.89886384    -0.27500
H1297       H  0.53843267  0.16384636  0.92514076     0.11400
H1298       H  0.54369646  0.20186464  0.86430803     0.12600
H1299       H  0.95691348  0.01938491  0.83051047     0.11600
H1300       H  0.95903654  0.05974553  0.77072820     0.10900
H1301       H  0.97620017  0.12086263  0.73582528     0.16300
H1302       H  0.53196688  0.20975110  0.79492016     0.12200
H1303       H  0.51941246  0.10409535  0.96071908     0.15000
H1304       H  0.97312123  0.00866201  0.89821038     0.14800
C1305       C  0.87030374  0.92662637  0.12864331    -0.18100
C1306       C  0.89253897  0.95347784  0.11469063    -0.20200
C1307       C  0.90493065  0.94812850  0.07749062     0.20400
C1308       C  0.89432925  0.91592258  0.05377930    -0.03100
C1309       C  0.87159319  0.88926503  0.06760450    -0.06200
C1310       C  0.85985705  0.89424338  0.10546501     0.20700
C1311       C  0.86109626  0.85711879  0.04381330     0.18900
C1312       C  0.87328679  0.85192342  0.00650413    -0.17700
C1313       C  0.89617883  0.87789106  0.99306964    -0.19900
C1314       C  0.90698301  0.90970012  0.01659073     0.20400
C1315       C  0.93098382  0.93445887  0.00413183    -0.32900
C1316       C  0.94227536  0.96558749  0.02808800     0.01100
C1317       C  0.92844743  0.97344991  0.06404309    -0.24300
C1318       C  0.83823411  0.86640473  0.11959732    -0.28800
C1319       C  0.82776400  0.83429245  0.09597307     0.06700
C1320       C  0.83899460  0.83024224  0.05796611    -0.27500
H1321       H  0.86145458  0.93099083  0.15770534     0.11400
H1322       H  0.90048533  0.97794727  0.13329742     0.12600
H1323       H  0.86545482  0.82735336  0.98793899     0.11600
H1324       H  0.90566844  0.87282902  0.96443928     0.10900
H1325       H  0.94176079  0.92864073  0.97635336     0.16300
H1326       H  0.93685663  0.99808330  0.08208834     0.12200
H1327       H  0.82947019  0.86976147  0.14884569     0.15000
H1328       H  0.83119121  0.80532427  0.03976449     0.14800
C1329       C  0.64112696  0.87503814  0.99751007    -0.18100
C1330       C  0.61642405  0.89859170  0.98482770    -0.20200
C1331       C  0.59927779  0.92133739  0.01146915     0.20400
C1332       C  0.60755324  0.92112602  0.05115368    -0.03100
C1333       C  0.63203375  0.89666646  0.06407262    -0.06200
C1334       C  0.64883983  0.87335143  0.03713278     0.20700
C1335       C  0.63906125  0.89461103  0.10407937     0.18900
C1336       C  0.62240837  0.91815198  0.13059710    -0.17700
C1337       C  0.59868393  0.94317943  0.11767042    -0.19900
C1338       C  0.59087668  0.94452282  0.07810410     0.20400
C1339       C  0.56607767  0.96782584  0.06522105    -0.32900
C1340       C  0.55622726  0.96570582  0.02630363     0.01100
C1341       C  0.57340937  0.94316359  0.99940089    -0.24300
C1342       C  0.67226815  0.84766620  0.05047628    -0.28800
C1343       C  0.67831928  0.84402388  0.09049755     0.06700
C1344       C  0.66194738  0.86809073  0.11701326    -0.27500
H1345       H  0.65375586  0.85737500  0.97641913     0.11400
H1346       H  0.61048884  0.89861187  0.95421818     0.12600
H1347       H  0.62754720  0.91691038  0.16141038     0.11600
H1348       H  0.58595509  0.96074397  0.13874763     0.10900
H1349       H  0.55363911  0.98637980  0.08576523     0.16300
H1350       H  0.56608138  0.94177034  0.96928054     0.12200
H1351       H  0.68457192  0.82881136  0.02999000     0.15000
H1352       H  0.66661319  0.86546731  0.14789380     0.14800
C1353       C  0.51473821  0.84172835  0.09831166    -0.18100
C1354       C  0.51619559  0.81892846  0.13252480    -0.20200
C1355       C  0.51013524  0.83714969  0.16858311     0.20400
C1356       C  0.50267577  0.87878218  0.17034339    -0.03100
C1357       C  0.50165328  0.90190900  0.13588585    -0.06200
C1358       C  0.50747074  0.88318097  0.09965272     0.20700
C1359       C  0.99474329  0.94370082  0.13769302     0.18900
C1360       C  0.98871779  0.96193703  0.17375202    -0.17700
C1361       C  0.98911428  0.93881459  0.20784180    -0.19900
C1362       C  0.99594977  0.89720026  0.20646870     0.20400
C1363       C  0.99586012  0.87353671  0.24042711    -0.32900
C1364       C  0.50343864  0.83218751  0.23865672     0.01100
C1365       C  0.51096124  0.81432894  0.20286313    -0.24300
C1366       C  0.50595676  0.90625522  0.06546363    -0.28800
C1367       C  0.49930057  0.94784928  0.06728582     0.06700
C1368       C  0.99401993  0.96648411  0.10339122    -0.27500
H1369       H  0.51933317  0.82694320  0.07079525     0.11400
H1370       H  0.52182531  0.78692726  0.13075725     0.12600
H1371       H  0.98340556  0.99402961  0.17554109     0.11600
H1372       H  0.98404946  0.95347336  0.23528175     0.10900
H1373       H  0.99006016  0.88714755  0.26814287     0.16300
H1374       H  0.51640763  0.78220041  0.20160960     0.12200
H1375       H  0.51034357  0.89220626  0.03751985     0.15000
H1376       H  0.98951872  0.99885010  0.10460167     0.14800
loop_ 
_geom_bond_atom_site_label_1 
_geom_bond_atom_site_label_2 
_geom_bond_distance 
_geom_bond_site_symmetry_2 
_ccdc_geom_bond_type 
C1            C6   1.419   1_655  A
C1          C690   1.412       .  A
C1          C679   1.483       .  S
C2            C3   1.403   1_564  A
C2          C689   1.412       .  A
C2          C628   1.481       .  S
C3            C4   1.413       .  A
C3          C556   1.485       .  S
C4          C693   1.425       .  A
C4         C1295   1.486       .  S
C5            C6   1.419   1_546  A
C5          C692   1.425   1_455  A
C5          C580   1.497       .  S
C6          C652   1.496       .  S
Fe7          O23   2.064       .  S
Fe7          O13   2.069       .  S
Fe7          O20   2.056       .  S
Fe7          O12   2.055       .  S
Fe7         O706   1.963       .  S
Fe8          O11   2.059       .  S
Fe8          O15   2.056       .  S
Fe8          O19   2.073       .  S
Fe8          O24   2.067       .  S
Fe8          O18   1.967       .  S
Fe9          O21   2.078       .  S
Fe9          O10   2.066       .  S
Fe9         O715   2.063       .  S
Fe9         O702   2.077       .  S
Fe9         O706   1.970       .  S
O10          C17   1.267       .  A
O11          C25   1.265       .  A
O12          C17   1.265       .  A
O13          C16   1.273       .  A
O14        Fe697   2.077       .  S
O14          C26   1.275       .  A
O15         C716   1.266   1_455  A
C16         C463   1.483       .  S
C16          O21   1.275       .  A
C17         C484   1.472       .  S
O18        Fe695   1.963   1_455  S
O18        Fe697   1.970       .  S
O19          C22   1.270       .  A
O20         C710   1.267       .  A
C22         C604   1.471       .  S
C22         O708   1.267   1_455  A
O23          C28   1.268       .  A
O24          C26   1.273       .  A
C25         C439   1.471       .  S
C25          O27   1.266       .  A
C26         C511   1.481       .  S
O27        Fe697   2.063       .  S
C28         C535   1.462       .  S
C28         O703   1.266       .  A
C29          C30   1.419       .  A
C29         C722   1.414       .  A
C29         C532   1.474       .  S
C30          C31   1.413   1_556  A
C30         C340   1.493       .  S
C31          C32   1.418       .  A
C31         C388   1.495       .  S
C32         C721   1.416       .  A
C32         C412   1.479       .  S
C33          C34   1.405   1_554  A
C33         C720   1.416   1_455  A
C33         C364   1.483       .  S
C34         C717   1.414   1_455  A
C34         C316   1.492       .  S
Fe35         O51   2.059       .  S
Fe35         O41   2.074       .  S
Fe35         O48   2.066       .  S
Fe35         O40   2.051       .  S
Fe35        O734   1.965       .  S
Fe36         O39   2.060       .  S
Fe36         O43   2.064       .  S
Fe36         O47   2.069       .  S
Fe36         O52   2.076       .  S
Fe36         O46   1.965   1_455  S
Fe37         O49   2.072       .  S
Fe37         O38   2.075       .  S
Fe37        O743   2.075       .  S
Fe37        O730   2.075       .  S
Fe37        O734   1.974       .  S
O38          C45   1.270       .  A
O39          C53   1.266       .  A
O40          C45   1.265       .  A
O41          C44   1.273       .  A
O42        Fe725   2.075   1_455  S
O42          C54   1.273       .  A
O43         C744   1.268   1_455  A
C44         C247   1.479       .  S
C44          O49   1.273       .  A
C45         C271   1.477       .  S
O46        Fe723   1.965       .  S
O46        Fe725   1.974       .  S
O47          C50   1.269       .  A
O48         C738   1.268       .  A
C50         C676   1.468       .  S
C50         O736   1.268   1_455  A
O51          C56   1.267       .  A
O52          C54   1.274       .  A
C53         C220   1.479       .  S
C53          O55   1.270       .  A
C54         C292   1.481       .  S
O55        Fe725   2.075   1_455  S
C56         C415   1.466       .  S
C56         O731   1.268       .  A
C57          C58   1.417       .  A
C57          C62   1.413       .  A
C57         C199   1.478       .  S
C58          C59   1.411   1_545  A
C58         C508   1.488       .  S
C59          C60   1.416       .  A
C59         C295   1.489       .  S
C60          C61   1.416       .  A
C60         C175   1.477       .  S
C61          C62   1.408   1_565  A
C61         C268   1.489       .  S
C62         C487   1.487       .  S
Fe63         O79   2.063       .  S
Fe63         O69   2.060       .  S
Fe63         O76   2.071       .  S
Fe63         O68   2.067       .  S
Fe63         O74   1.959       .  S
Fe64         O67   2.063       .  S
Fe64         O71   2.074       .  S
Fe64         O75   2.058       .  S
Fe64         O80   2.062       .  S
Fe64         O74   1.953       .  S
Fe65         O83   2.075       .  S
Fe65         O70   2.073       .  S
Fe65         O77   2.073       .  S
Fe65         O66   2.074       .  S
Fe65         O74   1.965       .  S
O66          C73   1.273       .  A
O67          C81   1.271       .  A
O68          C73   1.272       .  A
O69          C72   1.268       .  A
O70          C82   1.270       .  A
O71          C84   1.270       .  A
C72         C391   1.478       .  S
C72          O77   1.270       .  A
C73         C631   1.477       .  S
O75          C78   1.267       .  A
O76          C78   1.269       .  A
C78         C172   1.464       .  S
O79          C84   1.268       .  A
O80          C82   1.268       .  A
C81         C367   1.475       .  S
C81          O83   1.273       .  A
C82         C655   1.479       .  S
C84         C151   1.469       .  S
C85          C86   1.419       .  A
C85          C90   1.415       .  A
C85         C148   1.482       .  S
C86          C87   1.413       .  A
C86         C244   1.487       .  S
C87          C88   1.417       .  A
C87         C460   1.492       .  S
C88          C89   1.415       .  A
C88         C127   1.482       .  S
C89          C90   1.408       .  A
C89         C436   1.484       .  S
C90         C223   1.493       .  S
Fe91        O107   2.071       .  S
Fe91         O97   2.067       .  S
Fe91        O104   2.053       .  S
Fe91         O96   2.058       .  S
Fe91        O102   1.965       .  S
Fe92         O95   2.066       .  S
Fe92         O99   2.056       .  S
Fe92        O103   2.076       .  S
Fe92        O108   2.067       .  S
Fe92        O102   1.963       .  S
Fe93        O111   2.071       .  S
Fe93         O98   2.077       .  S
Fe93        O105   2.078       .  S
Fe93         O94   2.066       .  S
Fe93        O102   1.969       .  S
O94         C101   1.266       .  A
O95         C109   1.266       .  A
O96         C101   1.263       .  A
O97         C100   1.274       .  A
O98         C110   1.275       .  A
O99         C112   1.266       .  A
C100        C343   1.482       .  S
C100        O105   1.276       .  A
C101        C559   1.468       .  S
O103        C106   1.271       .  A
O104        C106   1.266       .  A
C106        C196   1.465       .  S
O107        C112   1.268       .  A
O108        C110   1.273       .  A
C109        C319   1.479       .  S
C109        O111   1.268       .  A
C110        C583   1.485       .  S
C112        C124   1.466       .  S
C113        C114   1.399       .  A
C113        C118   1.403       .  A
C113        H129   1.084       .  S
C114        C115   1.404       .  A
C114        H130   1.084       .  S
C115        C125   1.400       .  A
C115        C116   1.411       .  A
C116        C122   1.414       .  A
C116        C117   1.409       .  A
C117        C119   1.410       .  A
C117        C118   1.413       .  A
C118        C126   1.403       .  A
C119        C128   1.397       .  A
C119        C120   1.403       .  A
C120        C121   1.397       .  A
C120        H131   1.084       .  S
C121        C122   1.402       .  A
C121        H132   1.084       .  S
C122        C123   1.402       .  A
C123        C124   1.401       .  A
C123        H133   1.084       .  S
C124        C125   1.405       .  A
C125        H134   1.085       .  S
C126        C127   1.403       .  A
C126        H135   1.084       .  S
C127        C128   1.403       .  A
C128        H136   1.084       .  S
C137        C138   1.397       .  A
C137        C142   1.403       .  A
C137        H153   1.084       .  S
C138        C139   1.402       .  A
C138        H154   1.084       .  S
C139        C149   1.401       .  A
C139        C140   1.414       .  A
C140        C146   1.410       .  A
C140        C141   1.410       .  A
C141        C143   1.414       .  A
C141        C142   1.410       .  A
C142        C150   1.398       .  A
C143        C152   1.406       .  A
C143        C144   1.404       .  A
C144        C145   1.400       .  A
C144        H155   1.083       .  S
C145        C146   1.404       .  A
C145        H156   1.084       .  S
C146        C147   1.400       .  A
C147        C148   1.404       .  A
C147        H157   1.084       .  S
C148        C149   1.402       .  A
C149        H158   1.084       .  S
C150        C151   1.404       .  A
C150        H159   1.085       .  S
C151        C152   1.404       .  A
C152        H160   1.084       .  S
C161        C162   1.398       .  A
C161        C166   1.403       .  A
C161        H177   1.084       .  S
C162        C163   1.403       .  A
C162        H178   1.084       .  S
C163        C173   1.403       .  A
C163        C164   1.414       .  A
C164        C170   1.410       .  A
C164        C165   1.409       .  A
C165        C167   1.414       .  A
C165        C166   1.410       .  A
C166        C174   1.397       .  A
C167        C176   1.402       .  A
C167        C168   1.402       .  A
C168        C169   1.398       .  A
C168        H179   1.084       .  S
C169        C170   1.404       .  A
C169        H180   1.084       .  S
C170        C171   1.398       .  A
C171        C172   1.404       .  A
C171        H181   1.085       .  S
C172        C173   1.401       .  A
C173        H182   1.084       .  S
C174        C175   1.402       .  A
C174        H183   1.084       .  S
C175        C176   1.401       .  A
C176        H184   1.084       .  S
C185        C186   1.398       .  A
C185        C190   1.402       .  A
C185        H201   1.084       .  S
C186        C187   1.404       .  A
C186        H202   1.084       .  S
C187        C197   1.398       .  A
C187        C188   1.410       .  A
C188        C194   1.414       .  A
C188        C189   1.408       .  A
C189        C191   1.410       .  A
C189        C190   1.414       .  A
C190        C198   1.402       .  A
C191        C200   1.396       .  A
C191        C192   1.403       .  A
C192        C193   1.397       .  A
C192        H203   1.084       .  S
C193        C194   1.403       .  A
C193        H204   1.084       .  S
C194        C195   1.402       .  A
C195        C196   1.402       .  A
C195        H205   1.084       .  S
C196        C197   1.404       .  A
C197        H206   1.085       .  S
C198        C199   1.402       .  A
C198        H207   1.084       .  S
C199        C200   1.402       .  A
C200        H208   1.084       .  S
C209        C210   1.401       .  A
C209        C214   1.404       .  A
C209        H225   1.084       .  S
C210        C211   1.405       .  A
C210        H226   1.083       .  S
C211        C221   1.405       .  A
C211        C212   1.411       .  A
C212        C218   1.413       .  A
C212        C213   1.413       .  A
C213        C215   1.411       .  A
C213        C214   1.413       .  A
C214        C222   1.406       .  A
C215        C224   1.401       .  A
C215        C216   1.403       .  A
C216        C217   1.399       .  A
C216        H227   1.084       .  S
C217        C218   1.403       .  A
C217        H228   1.084       .  S
C218        C219   1.404       .  A
C219        C220   1.404       .  A
C219        H229   1.084       .  S
C220        C221   1.409       .  A
C221        H230   1.084       .  S
C222        C223   1.406       .  A
C222        H231   1.084       .  S
C223        C224   1.406       .  A
C224        H232   1.084       .  S
C233        C234   1.398       .  A
C233        C238   1.403       .  A
C233        H249   1.084       .  S
C234        C235   1.402       .  A
C234        H250   1.084       .  S
C235        C245   1.401       .  A
C235        C236   1.412       .  A
C236        C242   1.412       .  A
C236        C237   1.412       .  A
C237        C239   1.413       .  A
C237        C238   1.411       .  A
C238        C246   1.401       .  A
C239        C248   1.407       .  A
C239        C240   1.405       .  A
C240        C241   1.401       .  A
C240        H251   1.083       .  S
C241        C242   1.404       .  A
C241        H252   1.084       .  S
C242        C243   1.405       .  A
C243        C244   1.405       .  A
C243        H253   1.083       .  S
C244        C245   1.403       .  A
C245        H254   1.085       .  S
C246        C247   1.406       .  A
C246        H255   1.085       .  S
C247        C248   1.407       .  A
C248        H256   1.084       .  S
C257        C258   1.399       .  A
C257        C262   1.403       .  A
C257        H273   1.084       .  S
C258        C259   1.403       .  A
C258        H274   1.084       .  S
C259        C269   1.401       .  A
C259        C260   1.410       .  A
C260        C266   1.413       .  A
C260        C261   1.411       .  A
C261        C263   1.410       .  A
C261        C262   1.413       .  A
C262        C270   1.405       .  A
C263        C272   1.401       .  A
C263        C264   1.404       .  A
C264        C265   1.399       .  A
C264        H275   1.084       .  S
C265        C266   1.403       .  A
C265        H276   1.084       .  S
C266        C267   1.403       .  A
C267        C268   1.404       .  A
C267        H277   1.083       .  S
C268        C269   1.406       .  A
C269        H278   1.084       .  S
C270        C271   1.405       .  A
C270        H279   1.084       .  S
C271        C272   1.408       .  A
C272        H280   1.085       .  S
C281        C282   1.399       .  A
C281        C286   1.403       .  A
C281        H297   1.084       .  S
C282        C283   1.404       .  A
C282        H298   1.084       .  S
C283        C293   1.403       .  A
C283        C284   1.411       .  A
C284        C290   1.412       .  A
C284        C285   1.413       .  A
C285        C287   1.412       .  A
C285        C286   1.412       .  A
C286        C294   1.403       .  A
C287        C296   1.405       .  A
C287        C288   1.404       .  A
C288        C289   1.401       .  A
C288        H299   1.084       .  S
C289        C290   1.404       .  A
C289        H300   1.083       .  S
C290        C291   1.407       .  A
C291        C292   1.407       .  A
C291        H301   1.084       .  S
C292        C293   1.407       .  A
C293        H302   1.084       .  S
C294        C295   1.404       .  A
C294        H303   1.085       .  S
C295        C296   1.405       .  A
C296        H304   1.083       .  S
C305        C306   1.402       .  A
C305        C310   1.405       .  A
C305        H321   1.083       .  S
C306        C307   1.404       .  A
C306        H322   1.084       .  S
C307        C317   1.407       .  A
C307        C308   1.412       .  A
C308        C314   1.411       .  A
C308        C309   1.414       .  A
C309        C311   1.412       .  A
C309        C310   1.412       .  A
C310        C318   1.407       .  A
C311        C320   1.405       .  A
C311        C312   1.403       .  A
C312        C313   1.399   1_556  A
C312        H323   1.084   1_556  S
C313        C314   1.403   1_554  A
C313        H324   1.084       .  S
C314        C315   1.403       .  A
C315        C316   1.405       .  A
C315        H325   1.085   1_556  S
C316        C317   1.406       .  A
C317        H326   1.082       .  S
C318        C319   1.407       .  A
C318        H327   1.084       .  S
C319        C320   1.405       .  A
C320        H328   1.084       .  S
C329        C330   1.400       .  A
C329        C334   1.404       .  A
C329        H345   1.083       .  S
C330        C331   1.404       .  A
C330        H346   1.084       .  S
C331        C341   1.404       .  A
C331        C332   1.412       .  A
C332        C338   1.411       .  A
C332        C333   1.411       .  A
C333        C335   1.411       .  A
C333        C334   1.411       .  A
C334        C342   1.405       .  A
C335        C344   1.401       .  A
C335        C336   1.403       .  A
C336        C337   1.398   1_556  A
C336        H347   1.084   1_556  S
C337        C338   1.402   1_554  A
C337        H348   1.084       .  S
C338        C339   1.400       .  A
C339        C340   1.405       .  A
C339        H349   1.084   1_556  S
C340        C341   1.407       .  A
C341        H350   1.083       .  S
C342        C343   1.409       .  A
C342        H351   1.084       .  S
C343        C344   1.407       .  A
C344        H352   1.084       .  S
C353        C354   1.399   1_554  A
C353        C358   1.404       .  A
C353        H369   1.084   1_554  S
C354        C355   1.403   1_556  A
C354        H370   1.084       .  S
C355        C365   1.401       .  A
C355        C356   1.412       .  A
C356        C362   1.412       .  A
C356        C357   1.411       .  A
C357        C359   1.412       .  A
C357        C358   1.411       .  A
C358        C366   1.402       .  A
C359        C368   1.403       .  A
C359        C360   1.403       .  A
C360        C361   1.399       .  A
C360        H371   1.083       .  S
C361        C362   1.403       .  A
C361        H372   1.084       .  S
C362        C363   1.402       .  A
C363        C364   1.403       .  A
C363        H373   1.083       .  S
C364        C365   1.403       .  A
C365        H374   1.085   1_554  S
C366        C367   1.406       .  A
C366        H375   1.085       .  S
C367        C368   1.405       .  A
C368        H376   1.084       .  S
C377        C378   1.399       .  A
C377        C382   1.403   1_556  A
C377        H393   1.084       .  S
C378        C379   1.403   1_556  A
C378        H394   1.084       .  S
C379        C389   1.401       .  A
C379        C380   1.410       .  A
C380        C386   1.412       .  A
C380        C381   1.412       .  A
C381        C383   1.410       .  A
C381        C382   1.413       .  A
C382        C390   1.405       .  A
C383        C392   1.403       .  A
C383        C384   1.404       .  A
C384        C385   1.400       .  A
C384        H395   1.084       .  S
C385        C386   1.403       .  A
C385        H396   1.084       .  S
C386        C387   1.403       .  A
C387        C388   1.407       .  A
C387        H397   1.083       .  S
C388        C389   1.406       .  A
C389        H398   1.084   1_554  S
C390        C391   1.405       .  A
C390        H399   1.084       .  S
C391        C392   1.408       .  A
C392        H400   1.085       .  S
C401        C402   1.398       .  A
C401        C406   1.404       .  A
C401        H417   1.084       .  S
C402        C403   1.402       .  A
C402        H418   1.084       .  S
C403        C413   1.401       .  A
C403        C404   1.414       .  A
C404        C405   1.408       .  A
C404       C1098   1.409       .  A
C405        C406   1.410       .  A
C405       C1095   1.414       .  A
C406        C414   1.397       .  A
C407        C416   1.402       .  A
C407        C408   1.402       .  A
C407       C1093   1.414   1_455  A
C408        C409   1.398       .  A
C408        H419   1.084       .  S
C409        C410   1.403       .  A
C409        H420   1.084       .  S
C410        C411   1.396       .  A
C410       C1092   1.409   1_455  A
C411       C1100   1.403   1_455  A
C411        H421   1.084       .  S
C412        C413   1.402       .  A
C412       C1099   1.403       .  A
C413        H422   1.084       .  S
C414        C415   1.405       .  A
C414        H423   1.085       .  S
C415       C1104   1.402       .  A
C416       C1103   1.402   1_455  A
C416        H424   1.084       .  S
C425        C426   1.397       .  A
C425        C430   1.403       .  A
C425        H441   1.084       .  S
C426        C427   1.402       .  A
C426        H442   1.084       .  S
C427        C437   1.399       .  A
C427        C428   1.411       .  A
C428        C434   1.412       .  A
C428        C429   1.410       .  A
C429        C431   1.412       .  A
C429        C430   1.412       .  A
C430        C438   1.401       .  A
C431        C440   1.404       .  A
C431        C432   1.404       .  A
C432        C433   1.400       .  A
C432        H443   1.083       .  S
C433        C434   1.403       .  A
C433        H444   1.084       .  S
C434        C435   1.403       .  A
C435        C436   1.404       .  A
C435        H445   1.082       .  S
C436        C437   1.402       .  A
C437        H446   1.085       .  S
C438        C439   1.403       .  A
C438        H447   1.085       .  S
C439        C440   1.406       .  A
C440        H448   1.084       .  S
C449        C450   1.398       .  A
C449        C454   1.403       .  A
C449        H465   1.084       .  S
C450        C451   1.403       .  A
C450        H466   1.084       .  S
C451        C461   1.401       .  A
C451        C452   1.411       .  A
C452        C458   1.412       .  A
C452        C453   1.413       .  A
C453        C455   1.412       .  A
C453        C454   1.411       .  A
C454        C462   1.402       .  A
C455        C464   1.406       .  A
C455        C456   1.405       .  A
C456        C457   1.401       .  A
C456        H467   1.083       .  S
C457        C458   1.404       .  A
C457        H468   1.084       .  S
C458        C459   1.406       .  A
C459        C460   1.408       .  A
C459        H469   1.084       .  S
C460        C461   1.404       .  A
C461        H470   1.084       .  S
C462        C463   1.407       .  A
C462        H471   1.084       .  S
C463        C464   1.409       .  A
C464        H472   1.084       .  S
C473        C474   1.399       .  A
C473        C478   1.403       .  A
C473        H489   1.084       .  S
C474        C475   1.404       .  A
C474        H490   1.084       .  S
C475        C485   1.403       .  A
C475        C476   1.412       .  A
C476        C482   1.412       .  A
C476        C477   1.411       .  A
C477        C479   1.412       .  A
C477        C478   1.412       .  A
C478        C486   1.402       .  A
C479        C488   1.402       .  A
C479        C480   1.403       .  A
C480        C481   1.399       .  A
C480        H491   1.084       .  S
C481        C482   1.404       .  A
C481        H492   1.084       .  S
C482        C483   1.403       .  A
C483        C484   1.405       .  A
C483        H493   1.085       .  S
C484        C485   1.404       .  A
C485        H494   1.085       .  S
C486        C487   1.404       .  A
C486        H495   1.084       .  S
C487        C488   1.404       .  A
C488        H496   1.082       .  S
C497        C498   1.400       .  A
C497        C502   1.404       .  A
C497        H513   1.083       .  S
C498        C499   1.404       .  A
C498        H514   1.084       .  S
C499        C509   1.404       .  A
C499        C500   1.412       .  A
C500        C506   1.412       .  A
C500        C501   1.412       .  A
C501        C503   1.411       .  A
C501        C502   1.412       .  A
C502        C510   1.405       .  A
C503        C512   1.401       .  A
C503        C504   1.403       .  A
C504        C505   1.397       .  A
C504        H515   1.084       .  S
C505        C506   1.402       .  A
C505        H516   1.084       .  S
C506        C507   1.400       .  A
C507        C508   1.404       .  A
C507        H517   1.085       .  S
C508        C509   1.406       .  A
C509        H518   1.084       .  S
C510        C511   1.408       .  A
C510        H519   1.084       .  S
C511        C512   1.406       .  A
C512        H520   1.084       .  S
C521        C522   1.397       .  A
C521        C526   1.403       .  A
C521        H537   1.084       .  S
C522        C523   1.402       .  A
C522        H538   1.084       .  S
C523        C533   1.399       .  A
C523       C1212   1.414       .  A
C524        C530   1.410       .  A
C524        C525   1.407       .  A
C524       C1211   1.414       .  A
C525        C527   1.414       .  A
C525       C1214   1.410       .  A
C526        C534   1.397       .  A
C526       C1213   1.410       .  A
C527        C536   1.402       .  A
C527        C528   1.402       .  A
C528        C529   1.397       .  A
C528        H539   1.084       .  S
C529        C530   1.403       .  A
C529        H540   1.084       .  S
C530        C531   1.396       .  A
C531        C532   1.402       .  A
C531        H541   1.084       .  S
C532       C1221   1.401       .  A
C533       C1220   1.401       .  A
C533        H542   1.084       .  S
C534       C1223   1.403       .  A
C534        H543   1.085       .  S
C535        C536   1.401       .  A
C535       C1222   1.403       .  A
C536        H544   1.084       .  S
C545        C546   1.397   1_556  A
C545        C550   1.402       .  A
C545        H561   1.084   1_556  S
C546        C547   1.402   1_554  A
C546        H562   1.084       .  S
C547        C557   1.399       .  A
C547        C548   1.412       .  A
C548        C554   1.413       .  A
C548        C549   1.412       .  A
C549        C551   1.412       .  A
C549        C550   1.412       .  A
C550        C558   1.400       .  A
C551        C560   1.407       .  A
C551        C552   1.405       .  A
C552        C553   1.402       .  A
C552        H563   1.083       .  S
C553        C554   1.404       .  A
C553        H564   1.084       .  S
C554        C555   1.406       .  A
C555        C556   1.405       .  A
C555        H565   1.084   1_545  S
C556        C557   1.401       .  A
C557        H566   1.085   1_556  S
C558        C559   1.401       .  A
C558        H567   1.085       .  S
C559        C560   1.406       .  A
C560        H568   1.084       .  S
C569        C570   1.398   1_556  A
C569        C574   1.403       .  A
C569        H585   1.084   1_556  S
C570        C571   1.402   1_554  A
C570        H586   1.084       .  S
C571        C581   1.399       .  A
C571        C572   1.410       .  A
C572        C578   1.411       .  A
C572        C573   1.411       .  A
C573        C575   1.411       .  A
C573        C574   1.411       .  A
C574        C582   1.402       .  A
C575        C584   1.404       .  A
C575        C576   1.405       .  A
C576        C577   1.400       .  A
C576        H587   1.083       .  S
C577        C578   1.404       .  A
C577        H588   1.084       .  S
C578        C579   1.404       .  A
C579        C580   1.409       .  A
C579        H589   1.083       .  S
C580        C581   1.406       .  A
C581        H590   1.084   1_556  S
C582        C583   1.408       .  A
C582        H591   1.084       .  S
C583        C584   1.410       .  A
C584        H592   1.084       .  S
C593        C594   1.398       .  A
C593        C598   1.402       .  A
C593        H609   1.084       .  S
C594        C595   1.404       .  A
C594        H610   1.084       .  S
C595        C605   1.400       .  A
C595        C596   1.410       .  A
C596        C597   1.409   1_455  A
C596       C1290   1.413   1_455  A
C597        C598   1.413   1_655  A
C597       C1287   1.410       .  A
C598        C606   1.402       .  A
C599        C608   1.398       .  A
C599        C600   1.403       .  A
C599       C1285   1.410       .  A
C600        C601   1.398       .  A
C600        H611   1.084       .  S
C601        C602   1.403       .  A
C601        H612   1.084       .  S
C602        C603   1.402       .  A
C602       C1284   1.413       .  A
C603       C1292   1.404       .  A
C603        H613   1.084       .  S
C604        C605   1.406       .  A
C604       C1291   1.404   1_455  A
C605        H614   1.085       .  S
C606        C607   1.404   1_455  A
C606        H615   1.084       .  S
C607       C1296   1.405       .  A
C607        C692   1.486       .  S
C608       C1295   1.405       .  A
C608        H616   1.083       .  S
C617        C618   1.400       .  A
C617        C622   1.404       .  A
C617        H633   1.083       .  S
C618        C619   1.403       .  A
C618        H634   1.084       .  S
C619        C629   1.404       .  A
C619        C620   1.413       .  A
C620        C626   1.411       .  A
C620        C621   1.410       .  A
C621        C623   1.411       .  A
C621        C622   1.412       .  A
C622        C630   1.405       .  A
C623        C632   1.399       .  A
C623        C624   1.403       .  A
C624        C625   1.397   1_554  A
C624        H635   1.084   1_554  S
C625        C626   1.402   1_556  A
C625        H636   1.084       .  S
C626        C627   1.398       .  A
C627        C628   1.401       .  A
C627        H637   1.085   1_554  S
C628        C629   1.404       .  A
C629        H638   1.083       .  S
C630        C631   1.407       .  A
C630        H639   1.084       .  S
C631        C632   1.405       .  A
C632        H640   1.085       .  S
C641        C642   1.401       .  A
C641        C646   1.404   1_556  A
C641        H657   1.083       .  S
C642        C643   1.404   1_556  A
C642        H658   1.084       .  S
C643        C653   1.404   1_554  A
C643        C644   1.411       .  A
C644        C650   1.411       .  A
C644        C645   1.412       .  A
C645        C647   1.411       .  A
C645        C646   1.413       .  A
C646        C654   1.406       .  A
C647        C656   1.402       .  A
C647        C648   1.404       .  A
C648        C649   1.399       .  A
C648        H659   1.084       .  S
C649        C650   1.403       .  A
C649        H660   1.084       .  S
C650        C651   1.401       .  A
C651        C652   1.406       .  A
C651        H661   1.083       .  S
C652        C653   1.407   1_554  A
C653        H662   1.084       .  S
C654        C655   1.406       .  A
C654        H663   1.084       .  S
C655        C656   1.407       .  A
C656        H664   1.085       .  S
C665        C666   1.398       .  A
C665        C670   1.402       .  A
C665        H681   1.084       .  S
C666        C667   1.404       .  A
C666        H682   1.084       .  S
C667        C677   1.400       .  A
C667        C668   1.410       .  A
C668        C669   1.410       .  A
C668       C1362   1.414   1_455  A
C669        C670   1.414       .  A
C669       C1359   1.410   1_455  A
C670        C678   1.402       .  A
C671        C680   1.399       .  A
C671        C672   1.404       .  A
C671       C1357   1.410       .  A
C672        C673   1.399       .  A
C672        H683   1.084       .  S
C673        C674   1.403       .  A
C673        H684   1.084       .  S
C674        C675   1.405       .  A
C674       C1356   1.414       .  A
C675       C1364   1.402       .  A
C675        H685   1.084       .  S
C676        C677   1.404       .  A
C676       C1363   1.402   1_455  A
C677        H686   1.085       .  S
C678        C679   1.401   1_455  A
C678        H687   1.084       .  S
C679       C1368   1.405       .  A
C680       C1367   1.405       .  A
C680        H688   1.084       .  S
C689        C694   1.419       .  A
C689       C1367   1.483       .  S
C690        C691   1.403   1_564  A
C690       C1316   1.481       .  S
C691        C692   1.413       .  A
C691       C1244   1.485       .  S
C693        C694   1.419   1_546  A
C693       C1268   1.497       .  S
C694       C1340   1.496       .  S
Fe695       O711   2.064       .  S
Fe695       O701   2.069       .  S
Fe695       O708   2.056       .  S
Fe695       O700   2.055       .  S
Fe696       O699   2.059       .  S
Fe696       O703   2.056       .  S
Fe696       O707   2.073       .  S
Fe696       O712   2.067       .  S
Fe696       O706   1.967       .  S
Fe697       O709   2.078   1_455  S
Fe697       O698   2.066   1_455  S
O698        C705   1.267       .  A
O699        C713   1.265       .  A
O700        C705   1.265       .  A
O701        C704   1.273       .  A
O702        C714   1.275       .  A
C704       C1151   1.483       .  S
C704        O709   1.275       .  A
C705       C1172   1.472       .  S
O707        C710   1.270       .  A
C710       C1292   1.471       .  S
O711        C716   1.268       .  A
O712        C714   1.273       .  A
C713       C1127   1.471       .  S
C713        O715   1.266       .  A
C714       C1199   1.481       .  S
C716       C1223   1.462       .  S
C717        C718   1.419       .  A
C717       C1220   1.474       .  S
C718        C719   1.413   1_556  A
C718       C1028   1.493       .  S
C719        C720   1.418       .  A
C719       C1076   1.495       .  S
C720       C1100   1.479       .  S
C721        C722   1.405   1_554  A
C721       C1052   1.483       .  S
C722       C1004   1.492       .  S
Fe723       O739   2.059       .  S
Fe723       O729   2.074       .  S
Fe723       O736   2.066       .  S
Fe723       O728   2.051       .  S
Fe724       O727   2.060       .  S
Fe724       O731   2.064       .  S
Fe724       O735   2.069       .  S
Fe724       O740   2.076       .  S
Fe724       O734   1.965       .  S
Fe725       O737   2.072       .  S
Fe725       O726   2.075       .  S
O726        C733   1.270       .  A
O727        C741   1.266       .  A
O728        C733   1.265       .  A
O729        C732   1.273       .  A
O730        C742   1.273       .  A
C732        C935   1.479       .  S
C732        O737   1.273       .  A
C733        C959   1.477       .  S
O735        C738   1.269       .  A
C738       C1364   1.468       .  S
O739        C744   1.267       .  A
O740        C742   1.274       .  A
C741        C908   1.479       .  S
C741        O743   1.270       .  A
C742        C980   1.481       .  S
C744       C1103   1.466       .  S
C745        C746   1.417       .  A
C745        C750   1.413       .  A
C745        C887   1.478       .  S
C746        C747   1.411   1_545  A
C746       C1196   1.488       .  S
C747        C748   1.416       .  A
C747        C983   1.489       .  S
C748        C749   1.416       .  A
C748        C863   1.477       .  S
C749        C750   1.408   1_565  A
C749        C956   1.489       .  S
C750       C1175   1.487       .  S
Fe751       O767   2.063       .  S
Fe751       O757   2.060       .  S
Fe751       O764   2.071       .  S
Fe751       O756   2.067       .  S
Fe751       O762   1.959       .  S
Fe752       O755   2.063       .  S
Fe752       O759   2.074       .  S
Fe752       O763   2.058       .  S
Fe752       O768   2.062       .  S
Fe752       O762   1.953       .  S
Fe753       O771   2.075       .  S
Fe753       O758   2.073       .  S
Fe753       O765   2.073       .  S
Fe753       O754   2.074       .  S
Fe753       O762   1.965       .  S
O754        C761   1.273       .  A
O755        C769   1.271       .  A
O756        C761   1.272       .  A
O757        C760   1.268       .  A
O758        C770   1.270       .  A
O759        C772   1.270       .  A
C760       C1079   1.478       .  S
C760        O765   1.270       .  A
C761       C1319   1.477       .  S
O763        C766   1.267       .  A
O764        C766   1.269       .  A
C766        C860   1.464       .  S
O767        C772   1.268       .  A
O768        C770   1.268       .  A
C769       C1055   1.475       .  S
C769        O771   1.273       .  A
C770       C1343   1.479       .  S
C772        C839   1.469       .  S
C773        C774   1.419       .  A
C773        C778   1.415       .  A
C773        C836   1.482       .  S
C774        C775   1.413       .  A
C774        C932   1.487       .  S
C775        C776   1.417       .  A
C775       C1148   1.492       .  S
C776        C777   1.415       .  A
C776        C815   1.482       .  S
C777        C778   1.408       .  A
C777       C1124   1.484       .  S
C778        C911   1.493       .  S
Fe779       O795   2.071       .  S
Fe779       O785   2.067       .  S
Fe779       O792   2.053       .  S
Fe779       O784   2.058       .  S
Fe779       O790   1.965       .  S
Fe780       O783   2.066       .  S
Fe780       O787   2.056       .  S
Fe780       O791   2.076       .  S
Fe780       O796   2.067       .  S
Fe780       O790   1.963       .  S
Fe781       O799   2.071       .  S
Fe781       O786   2.077       .  S
Fe781       O793   2.078       .  S
Fe781       O782   2.066       .  S
Fe781       O790   1.969       .  S
O782        C789   1.266       .  A
O783        C797   1.266       .  A
O784        C789   1.263       .  A
O785        C788   1.274       .  A
O786        C798   1.275       .  A
O787        C800   1.266       .  A
C788       C1031   1.482       .  S
C788        O793   1.276       .  A
C789       C1247   1.468       .  S
O791        C794   1.271       .  A
O792        C794   1.266       .  A
C794        C884   1.465       .  S
O795        C800   1.268       .  A
O796        C798   1.273       .  A
C797       C1007   1.479       .  S
C797        O799   1.268       .  A
C798       C1271   1.485       .  S
C800        C812   1.466       .  S
C801        C802   1.399       .  A
C801        C806   1.403       .  A
C801        H817   1.084       .  S
C802        C803   1.404       .  A
C802        H818   1.084       .  S
C803        C813   1.400       .  A
C803        C804   1.411       .  A
C804        C810   1.414       .  A
C804        C805   1.409       .  A
C805        C807   1.410       .  A
C805        C806   1.413       .  A
C806        C814   1.403       .  A
C807        C816   1.397       .  A
C807        C808   1.403       .  A
C808        C809   1.397       .  A
C808        H819   1.084       .  S
C809        C810   1.402       .  A
C809        H820   1.084       .  S
C810        C811   1.402       .  A
C811        C812   1.401       .  A
C811        H821   1.084       .  S
C812        C813   1.405       .  A
C813        H822   1.085       .  S
C814        C815   1.403       .  A
C814        H823   1.084       .  S
C815        C816   1.403       .  A
C816        H824   1.084       .  S
C825        C826   1.397       .  A
C825        C830   1.403       .  A
C825        H841   1.084       .  S
C826        C827   1.402       .  A
C826        H842   1.084       .  S
C827        C837   1.401       .  A
C827        C828   1.414       .  A
C828        C834   1.410       .  A
C828        C829   1.410       .  A
C829        C831   1.414       .  A
C829        C830   1.410       .  A
C830        C838   1.398       .  A
C831        C840   1.406       .  A
C831        C832   1.404       .  A
C832        C833   1.400       .  A
C832        H843   1.083       .  S
C833        C834   1.404       .  A
C833        H844   1.084       .  S
C834        C835   1.400       .  A
C835        C836   1.404       .  A
C835        H845   1.084       .  S
C836        C837   1.402       .  A
C837        H846   1.084       .  S
C838        C839   1.404       .  A
C838        H847   1.085       .  S
C839        C840   1.404       .  A
C840        H848   1.084       .  S
C849        C850   1.398       .  A
C849        C854   1.403       .  A
C849        H865   1.084       .  S
C850        C851   1.403       .  A
C850        H866   1.084       .  S
C851        C861   1.403       .  A
C851        C852   1.414       .  A
C852        C858   1.410       .  A
C852        C853   1.409       .  A
C853        C855   1.414       .  A
C853        C854   1.410       .  A
C854        C862   1.397       .  A
C855        C864   1.402       .  A
C855        C856   1.402       .  A
C856        C857   1.398       .  A
C856        H867   1.084       .  S
C857        C858   1.404       .  A
C857        H868   1.084       .  S
C858        C859   1.398       .  A
C859        C860   1.404       .  A
C859        H869   1.085       .  S
C860        C861   1.401       .  A
C861        H870   1.084       .  S
C862        C863   1.402       .  A
C862        H871   1.084       .  S
C863        C864   1.401       .  A
C864        H872   1.084       .  S
C873        C874   1.398       .  A
C873        C878   1.402       .  A
C873        H889   1.084       .  S
C874        C875   1.404       .  A
C874        H890   1.084       .  S
C875        C885   1.398       .  A
C875        C876   1.410       .  A
C876        C882   1.414       .  A
C876        C877   1.408       .  A
C877        C879   1.410       .  A
C877        C878   1.414       .  A
C878        C886   1.402       .  A
C879        C888   1.396       .  A
C879        C880   1.403       .  A
C880        C881   1.397       .  A
C880        H891   1.084       .  S
C881        C882   1.403       .  A
C881        H892   1.084       .  S
C882        C883   1.402       .  A
C883        C884   1.402       .  A
C883        H893   1.084       .  S
C884        C885   1.404       .  A
C885        H894   1.085       .  S
C886        C887   1.402       .  A
C886        H895   1.084       .  S
C887        C888   1.402       .  A
C888        H896   1.084       .  S
C897        C898   1.401       .  A
C897        C902   1.404       .  A
C897        H913   1.084       .  S
C898        C899   1.405       .  A
C898        H914   1.083       .  S
C899        C909   1.405       .  A
C899        C900   1.411       .  A
C900        C906   1.413       .  A
C900        C901   1.413       .  A
C901        C903   1.411       .  A
C901        C902   1.413       .  A
C902        C910   1.406       .  A
C903        C912   1.401       .  A
C903        C904   1.403       .  A
C904        C905   1.399       .  A
C904        H915   1.084       .  S
C905        C906   1.403       .  A
C905        H916   1.084       .  S
C906        C907   1.404       .  A
C907        C908   1.404       .  A
C907        H917   1.084       .  S
C908        C909   1.409       .  A
C909        H918   1.084       .  S
C910        C911   1.406       .  A
C910        H919   1.084       .  S
C911        C912   1.406       .  A
C912        H920   1.084       .  S
C921        C922   1.398       .  A
C921        C926   1.403       .  A
C921        H937   1.084       .  S
C922        C923   1.402       .  A
C922        H938   1.084       .  S
C923        C933   1.401       .  A
C923        C924   1.412       .  A
C924        C930   1.412       .  A
C924        C925   1.412       .  A
C925        C927   1.413       .  A
C925        C926   1.411       .  A
C926        C934   1.401       .  A
C927        C936   1.407       .  A
C927        C928   1.405       .  A
C928        C929   1.401       .  A
C928        H939   1.083       .  S
C929        C930   1.404       .  A
C929        H940   1.084       .  S
C930        C931   1.405       .  A
C931        C932   1.405       .  A
C931        H941   1.083       .  S
C932        C933   1.403       .  A
C933        H942   1.085       .  S
C934        C935   1.406       .  A
C934        H943   1.085       .  S
C935        C936   1.407       .  A
C936        H944   1.084       .  S
C945        C946   1.399       .  A
C945        C950   1.403       .  A
C945        H961   1.084       .  S
C946        C947   1.403       .  A
C946        H962   1.084       .  S
C947        C957   1.401       .  A
C947        C948   1.410       .  A
C948        C954   1.413       .  A
C948        C949   1.411       .  A
C949        C951   1.410       .  A
C949        C950   1.413       .  A
C950        C958   1.405       .  A
C951        C960   1.401       .  A
C951        C952   1.404       .  A
C952        C953   1.399       .  A
C952        H963   1.084       .  S
C953        C954   1.403       .  A
C953        H964   1.084       .  S
C954        C955   1.403       .  A
C955        C956   1.404       .  A
C955        H965   1.083       .  S
C956        C957   1.406       .  A
C957        H966   1.084       .  S
C958        C959   1.405       .  A
C958        H967   1.084       .  S
C959        C960   1.408       .  A
C960        H968   1.085       .  S
C969        C970   1.399       .  A
C969        C974   1.403       .  A
C969        H985   1.084       .  S
C970        C971   1.404       .  A
C970        H986   1.084       .  S
C971        C981   1.403       .  A
C971        C972   1.411       .  A
C972        C978   1.412       .  A
C972        C973   1.413       .  A
C973        C975   1.412       .  A
C973        C974   1.412       .  A
C974        C982   1.403       .  A
C975        C984   1.405       .  A
C975        C976   1.404       .  A
C976        C977   1.401       .  A
C976        H987   1.084       .  S
C977        C978   1.404       .  A
C977        H988   1.083       .  S
C978        C979   1.407       .  A
C979        C980   1.407       .  A
C979        H989   1.084       .  S
C980        C981   1.407       .  A
C981        H990   1.084       .  S
C982        C983   1.404       .  A
C982        H991   1.085       .  S
C983        C984   1.405       .  A
C984        H992   1.083       .  S
C993        C994   1.402       .  A
C993        C998   1.405       .  A
C993       H1009   1.083       .  S
C994        C995   1.404       .  A
C994       H1010   1.084       .  S
C995       C1005   1.407       .  A
C995        C996   1.412       .  A
C996       C1002   1.411       .  A
C996        C997   1.414       .  A
C997        C999   1.412       .  A
C997        C998   1.412       .  A
C998       C1006   1.407       .  A
C999       C1008   1.405       .  A
C999       C1000   1.403       .  A
C1000      C1001   1.399   1_556  A
C1000      H1011   1.084   1_556  S
C1001      C1002   1.403   1_554  A
C1001      H1012   1.084       .  S
C1002      C1003   1.403       .  A
C1003      C1004   1.405       .  A
C1003      H1013   1.085   1_556  S
C1004      C1005   1.406       .  A
C1005      H1014   1.082       .  S
C1006      C1007   1.407       .  A
C1006      H1015   1.084       .  S
C1007      C1008   1.405       .  A
C1008      H1016   1.084       .  S
C1017      C1018   1.400       .  A
C1017      C1022   1.404       .  A
C1017      H1033   1.083       .  S
C1018      C1019   1.404       .  A
C1018      H1034   1.084       .  S
C1019      C1029   1.404       .  A
C1019      C1020   1.412       .  A
C1020      C1026   1.411       .  A
C1020      C1021   1.411       .  A
C1021      C1023   1.411       .  A
C1021      C1022   1.411       .  A
C1022      C1030   1.405       .  A
C1023      C1032   1.401       .  A
C1023      C1024   1.403       .  A
C1024      C1025   1.398   1_556  A
C1024      H1035   1.084   1_556  S
C1025      C1026   1.402   1_554  A
C1025      H1036   1.084       .  S
C1026      C1027   1.400       .  A
C1027      C1028   1.405       .  A
C1027      H1037   1.084   1_556  S
C1028      C1029   1.407       .  A
C1029      H1038   1.083       .  S
C1030      C1031   1.409       .  A
C1030      H1039   1.084       .  S
C1031      C1032   1.407       .  A
C1032      H1040   1.084       .  S
C1041      C1042   1.399   1_554  A
C1041      C1046   1.404       .  A
C1041      H1057   1.084   1_554  S
C1042      C1043   1.403   1_556  A
C1042      H1058   1.084       .  S
C1043      C1053   1.401       .  A
C1043      C1044   1.412       .  A
C1044      C1050   1.412       .  A
C1044      C1045   1.411       .  A
C1045      C1047   1.412       .  A
C1045      C1046   1.411       .  A
C1046      C1054   1.402       .  A
C1047      C1056   1.403       .  A
C1047      C1048   1.403       .  A
C1048      C1049   1.399       .  A
C1048      H1059   1.083       .  S
C1049      C1050   1.403       .  A
C1049      H1060   1.084       .  S
C1050      C1051   1.402       .  A
C1051      C1052   1.403       .  A
C1051      H1061   1.083       .  S
C1052      C1053   1.403       .  A
C1053      H1062   1.085   1_554  S
C1054      C1055   1.406       .  A
C1054      H1063   1.085       .  S
C1055      C1056   1.405       .  A
C1056      H1064   1.084       .  S
C1065      C1066   1.399       .  A
C1065      C1070   1.403   1_556  A
C1065      H1081   1.084       .  S
C1066      C1067   1.403   1_556  A
C1066      H1082   1.084       .  S
C1067      C1077   1.401       .  A
C1067      C1068   1.410       .  A
C1068      C1074   1.412       .  A
C1068      C1069   1.412       .  A
C1069      C1071   1.410       .  A
C1069      C1070   1.413       .  A
C1070      C1078   1.405       .  A
C1071      C1080   1.403       .  A
C1071      C1072   1.404       .  A
C1072      C1073   1.400       .  A
C1072      H1083   1.084       .  S
C1073      C1074   1.403       .  A
C1073      H1084   1.084       .  S
C1074      C1075   1.403       .  A
C1075      C1076   1.407       .  A
C1075      H1085   1.083       .  S
C1076      C1077   1.406       .  A
C1077      H1086   1.084   1_554  S
C1078      C1079   1.405       .  A
C1078      H1087   1.084       .  S
C1079      C1080   1.408       .  A
C1080      H1088   1.085       .  S
C1089      C1090   1.398       .  A
C1089      C1094   1.404       .  A
C1089      H1105   1.084       .  S
C1090      C1091   1.402       .  A
C1090      H1106   1.084       .  S
C1091      C1101   1.401       .  A
C1091      C1092   1.414       .  A
C1092      C1093   1.408       .  A
C1093      C1094   1.410       .  A
C1094      C1102   1.397       .  A
C1095      C1104   1.402       .  A
C1095      C1096   1.402       .  A
C1096      C1097   1.398       .  A
C1096      H1107   1.084       .  S
C1097      C1098   1.403       .  A
C1097      H1108   1.084       .  S
C1098      C1099   1.396       .  A
C1099      H1109   1.084       .  S
C1100      C1101   1.402       .  A
C1101      H1110   1.084       .  S
C1102      C1103   1.405       .  A
C1102      H1111   1.085       .  S
C1104      H1112   1.084       .  S
C1113      C1114   1.397       .  A
C1113      C1118   1.403       .  A
C1113      H1129   1.084       .  S
C1114      C1115   1.402       .  A
C1114      H1130   1.084       .  S
C1115      C1125   1.399       .  A
C1115      C1116   1.411       .  A
C1116      C1122   1.412       .  A
C1116      C1117   1.410       .  A
C1117      C1119   1.412       .  A
C1117      C1118   1.412       .  A
C1118      C1126   1.401       .  A
C1119      C1128   1.404       .  A
C1119      C1120   1.404       .  A
C1120      C1121   1.400       .  A
C1120      H1131   1.083       .  S
C1121      C1122   1.403       .  A
C1121      H1132   1.084       .  S
C1122      C1123   1.403       .  A
C1123      C1124   1.404       .  A
C1123      H1133   1.082       .  S
C1124      C1125   1.402       .  A
C1125      H1134   1.085       .  S
C1126      C1127   1.403       .  A
C1126      H1135   1.085       .  S
C1127      C1128   1.406       .  A
C1128      H1136   1.084       .  S
C1137      C1138   1.398       .  A
C1137      C1142   1.403       .  A
C1137      H1153   1.084       .  S
C1138      C1139   1.403       .  A
C1138      H1154   1.084       .  S
C1139      C1149   1.401       .  A
C1139      C1140   1.411       .  A
C1140      C1146   1.412       .  A
C1140      C1141   1.413       .  A
C1141      C1143   1.412       .  A
C1141      C1142   1.411       .  A
C1142      C1150   1.402       .  A
C1143      C1152   1.406       .  A
C1143      C1144   1.405       .  A
C1144      C1145   1.401       .  A
C1144      H1155   1.083       .  S
C1145      C1146   1.404       .  A
C1145      H1156   1.084       .  S
C1146      C1147   1.406       .  A
C1147      C1148   1.408       .  A
C1147      H1157   1.084       .  S
C1148      C1149   1.404       .  A
C1149      H1158   1.084       .  S
C1150      C1151   1.407       .  A
C1150      H1159   1.084       .  S
C1151      C1152   1.409       .  A
C1152      H1160   1.084       .  S
C1161      C1162   1.399       .  A
C1161      C1166   1.403       .  A
C1161      H1177   1.084       .  S
C1162      C1163   1.404       .  A
C1162      H1178   1.084       .  S
C1163      C1173   1.403       .  A
C1163      C1164   1.412       .  A
C1164      C1170   1.412       .  A
C1164      C1165   1.411       .  A
C1165      C1167   1.412       .  A
C1165      C1166   1.412       .  A
C1166      C1174   1.402       .  A
C1167      C1176   1.402       .  A
C1167      C1168   1.403       .  A
C1168      C1169   1.399       .  A
C1168      H1179   1.084       .  S
C1169      C1170   1.404       .  A
C1169      H1180   1.084       .  S
C1170      C1171   1.403       .  A
C1171      C1172   1.405       .  A
C1171      H1181   1.085       .  S
C1172      C1173   1.404       .  A
C1173      H1182   1.085       .  S
C1174      C1175   1.404       .  A
C1174      H1183   1.084       .  S
C1175      C1176   1.404       .  A
C1176      H1184   1.082       .  S
C1185      C1186   1.400       .  A
C1185      C1190   1.404       .  A
C1185      H1201   1.083       .  S
C1186      C1187   1.404       .  A
C1186      H1202   1.084       .  S
C1187      C1197   1.404       .  A
C1187      C1188   1.412       .  A
C1188      C1194   1.412       .  A
C1188      C1189   1.412       .  A
C1189      C1191   1.411       .  A
C1189      C1190   1.412       .  A
C1190      C1198   1.405       .  A
C1191      C1200   1.401       .  A
C1191      C1192   1.403       .  A
C1192      C1193   1.397       .  A
C1192      H1203   1.084       .  S
C1193      C1194   1.402       .  A
C1193      H1204   1.084       .  S
C1194      C1195   1.400       .  A
C1195      C1196   1.404       .  A
C1195      H1205   1.085       .  S
C1196      C1197   1.406       .  A
C1197      H1206   1.084       .  S
C1198      C1199   1.408       .  A
C1198      H1207   1.084       .  S
C1199      C1200   1.406       .  A
C1200      H1208   1.084       .  S
C1209      C1210   1.397       .  A
C1209      C1214   1.403       .  A
C1209      H1225   1.084       .  S
C1210      C1211   1.402       .  A
C1210      H1226   1.084       .  S
C1211      C1221   1.399       .  A
C1212      C1218   1.410   1_655  A
C1212      C1213   1.407       .  A
C1213      C1215   1.414   1_655  A
C1214      C1222   1.397       .  A
C1215      C1224   1.402       .  A
C1215      C1216   1.402       .  A
C1216      C1217   1.397       .  A
C1216      H1227   1.084       .  S
C1217      C1218   1.403       .  A
C1217      H1228   1.084       .  S
C1218      C1219   1.396       .  A
C1219      C1220   1.402   1_455  A
C1219      H1229   1.084       .  S
C1221      H1230   1.084       .  S
C1222      H1231   1.085       .  S
C1223      C1224   1.401   1_655  A
C1224      H1232   1.084       .  S
C1233      C1234   1.397   1_556  A
C1233      C1238   1.402       .  A
C1233      H1249   1.084   1_556  S
C1234      C1235   1.402   1_554  A
C1234      H1250   1.084       .  S
C1235      C1245   1.399       .  A
C1235      C1236   1.412       .  A
C1236      C1242   1.413       .  A
C1236      C1237   1.412       .  A
C1237      C1239   1.412       .  A
C1237      C1238   1.412       .  A
C1238      C1246   1.400       .  A
C1239      C1248   1.407       .  A
C1239      C1240   1.405       .  A
C1240      C1241   1.402       .  A
C1240      H1251   1.083       .  S
C1241      C1242   1.404       .  A
C1241      H1252   1.084       .  S
C1242      C1243   1.406       .  A
C1243      C1244   1.405       .  A
C1243      H1253   1.084   1_545  S
C1244      C1245   1.401       .  A
C1245      H1254   1.085   1_556  S
C1246      C1247   1.401       .  A
C1246      H1255   1.085       .  S
C1247      C1248   1.406       .  A
C1248      H1256   1.084       .  S
C1257      C1258   1.398   1_556  A
C1257      C1262   1.403       .  A
C1257      H1273   1.084   1_556  S
C1258      C1259   1.402   1_554  A
C1258      H1274   1.084       .  S
C1259      C1269   1.399       .  A
C1259      C1260   1.410       .  A
C1260      C1266   1.411       .  A
C1260      C1261   1.411       .  A
C1261      C1263   1.411       .  A
C1261      C1262   1.411       .  A
C1262      C1270   1.402       .  A
C1263      C1272   1.404       .  A
C1263      C1264   1.405       .  A
C1264      C1265   1.400       .  A
C1264      H1275   1.083       .  S
C1265      C1266   1.404       .  A
C1265      H1276   1.084       .  S
C1266      C1267   1.404       .  A
C1267      C1268   1.409       .  A
C1267      H1277   1.083       .  S
C1268      C1269   1.406       .  A
C1269      H1278   1.084   1_556  S
C1270      C1271   1.408       .  A
C1270      H1279   1.084       .  S
C1271      C1272   1.410       .  A
C1272      H1280   1.084       .  S
C1281      C1282   1.398       .  A
C1281      C1286   1.402       .  A
C1281      H1297   1.084       .  S
C1282      C1283   1.404       .  A
C1282      H1298   1.084       .  S
C1283      C1293   1.400       .  A
C1283      C1284   1.410       .  A
C1284      C1285   1.409       .  A
C1285      C1286   1.413       .  A
C1286      C1294   1.402       .  A
C1287      C1296   1.398       .  A
C1287      C1288   1.403       .  A
C1288      C1289   1.398       .  A
C1288      H1299   1.084       .  S
C1289      C1290   1.403       .  A
C1289      H1300   1.084       .  S
C1290      C1291   1.402       .  A
C1291      H1301   1.084       .  S
C1292      C1293   1.406       .  A
C1293      H1302   1.085       .  S
C1294      C1295   1.404       .  A
C1294      H1303   1.084       .  S
C1296      H1304   1.083       .  S
C1305      C1306   1.400       .  A
C1305      C1310   1.404       .  A
C1305      H1321   1.083       .  S
C1306      C1307   1.403       .  A
C1306      H1322   1.084       .  S
C1307      C1317   1.404       .  A
C1307      C1308   1.413       .  A
C1308      C1314   1.411       .  A
C1308      C1309   1.410       .  A
C1309      C1311   1.411       .  A
C1309      C1310   1.412       .  A
C1310      C1318   1.405       .  A
C1311      C1320   1.399       .  A
C1311      C1312   1.403       .  A
C1312      C1313   1.397   1_554  A
C1312      H1323   1.084   1_554  S
C1313      C1314   1.402   1_556  A
C1313      H1324   1.084       .  S
C1314      C1315   1.398       .  A
C1315      C1316   1.401       .  A
C1315      H1325   1.085   1_554  S
C1316      C1317   1.404       .  A
C1317      H1326   1.083       .  S
C1318      C1319   1.407       .  A
C1318      H1327   1.084       .  S
C1319      C1320   1.405       .  A
C1320      H1328   1.085       .  S
C1329      C1330   1.401       .  A
C1329      C1334   1.404   1_556  A
C1329      H1345   1.083       .  S
C1330      C1331   1.404   1_556  A
C1330      H1346   1.084       .  S
C1331      C1341   1.404   1_554  A
C1331      C1332   1.411       .  A
C1332      C1338   1.411       .  A
C1332      C1333   1.412       .  A
C1333      C1335   1.411       .  A
C1333      C1334   1.413       .  A
C1334      C1342   1.406       .  A
C1335      C1344   1.402       .  A
C1335      C1336   1.404       .  A
C1336      C1337   1.399       .  A
C1336      H1347   1.084       .  S
C1337      C1338   1.403       .  A
C1337      H1348   1.084       .  S
C1338      C1339   1.401       .  A
C1339      C1340   1.406       .  A
C1339      H1349   1.083       .  S
C1340      C1341   1.407   1_554  A
C1341      H1350   1.084       .  S
C1342      C1343   1.406       .  A
C1342      H1351   1.084       .  S
C1343      C1344   1.407       .  A
C1344      H1352   1.085       .  S
C1353      C1354   1.398       .  A
C1353      C1358   1.402       .  A
C1353      H1369   1.084       .  S
C1354      C1355   1.404       .  A
C1354      H1370   1.084       .  S
C1355      C1365   1.400       .  A
C1355      C1356   1.410       .  A
C1356      C1357   1.410       .  A
C1357      C1358   1.414       .  A
C1358      C1366   1.402       .  A
C1359      C1368   1.399       .  A
C1359      C1360   1.404       .  A
C1360      C1361   1.399       .  A
C1360      H1371   1.084       .  S
C1361      C1362   1.403       .  A
C1361      H1372   1.084       .  S
C1362      C1363   1.405       .  A
C1363      H1373   1.084       .  S
C1364      C1365   1.404       .  A
C1365      H1374   1.085       .  S
C1366      C1367   1.401       .  A
C1366      H1375   1.084       .  S
C1368      H1376   1.084       .  S
