geometry optimzed in LAMMPS
_audit_creation_date              2020-11-30 
_audit_creation_method            'lammps2cif' 
_symmetry_space_group_name_H-M    'P1' 
_symmetry_Int_Tables_number       1 
_symmetry_cell_setting            triclinic 
loop_ 
_symmetry_equiv_pos_as_xyz 
  x,y,z 
_cell_length_a                    30.10405582486745 
_cell_length_b                    30.702374605183625 
_cell_length_c                    32.02821169487588 
_cell_angle_alpha                 90.99971841999086 
_cell_angle_beta                  89.20491010478968 
_cell_angle_gamma                 118.77710878588148 
loop_ 
_atom_site_label 
_atom_site_type_symbol 
_atom_site_fract_x 
_atom_site_fract_y 
_atom_site_fract_z 
_atom_site_charge 
C1          C  0.01372961  0.17066764  0.95589850     0.42480
N2          N  0.01363978  0.11254768  0.99326883     0.01370
C3          C  0.09313538  0.94094856  0.93914700    -0.06510
H4          H  0.93677060  0.91551182  0.85438168     0.06860
C5          C  0.84400974  0.88341891  0.00996302    -0.06860
Co6        Co  0.05909870  0.05728667  0.94742079     0.74180
N7          N  0.97984321  0.96949453  0.90206771    -0.26040
Co8        Co  0.98416097  0.92953647  0.95317764     0.74070
C9          C  0.82585246  0.85160712  0.97345290     0.42580
N10         N  0.91296423  0.99340531  0.05931057     0.00990
N11         N  0.90663034  0.89937874  0.96783947     0.01090
N12         N  0.13925449  0.02451202  0.93612787    -0.46880
H13         H  0.04339124  0.14504162  0.89845973     0.06850
N14         N  0.00743880  0.01834520  0.90127328     0.01380
N15         N  0.98970832  0.89136530  0.00408824     0.01120
C16         C  0.99333772  0.83475644  0.04026570     0.42720
N17         N  0.94038189  0.04202575  0.05579350    -0.25490
C18         C  0.15945941  0.12238708  0.98927153    -0.06410
N19         N  0.00443797  0.15064391  0.99448409    -0.46600
N20         N  0.99996558  0.85400785  0.00174011    -0.46820
C21         C  0.17636248  0.15404577  0.02604095     0.42490
N22         N  0.09026691  0.00996245  0.93985203     0.01360
N23         N  0.02308328  0.03476643  0.09636860    -0.25510
N24         N  0.02923709  0.10610591  0.95616389    -0.26010
N25         N  0.99637611  0.98581597  0.09739752     0.01000
H26         H  0.06423443  0.08942564  0.14428083     0.06890
H27         H  0.96270884  0.85647199  0.09891385     0.06930
N28         N  0.06228881  0.96127779  0.94205336    -0.26060
N29         N  0.89382247  0.90937030  0.00481401    -0.25670
N30         N  0.09600981  0.10461974  0.03090077     0.01370
C31         C  0.97672771  0.99936962  0.83949357     0.42770
C32         C  0.90926560  0.06198279  0.05909746    -0.06920
N33         N  0.97505583  0.89749941  0.04177586    -0.25670
H34         H  0.82428505  0.88027961  0.03918988     0.06910
N35         N  0.00677760  0.03732727  0.86479719    -0.46890
H36         H  0.92067438  0.10107069  0.05677484     0.06900
C37         C  0.02700061  0.00592376  0.15917557     0.42600
C38         C  0.02986335  0.14040586  0.93026641    -0.06420
Co39       Co  0.01850035  0.07427093  0.04482248     0.73820
N40         N  0.86410034  0.97860560  0.06488806    -0.46610
C41         C  0.14441866  0.98324849  0.93502667     0.42870
N42         N  0.13473443  0.14171017  0.05031262    -0.46600
Co43       Co  0.94467384  0.94638963  0.05134951     0.73890
C44         C  0.97627668  0.86332437  0.06699500    -0.06920
C45         C  0.95856076  0.95391599  0.86427393    -0.06490
N46         N  0.10968209  0.09492944  0.99414956    -0.26010
N47         N  0.86703281  0.86282692  0.94874494    -0.46780
H48         H  0.08137810  0.90184171  0.94190619     0.06870
C49         C  0.04389328  0.05095164  0.13425883    -0.06900
Cl50       Cl  0.00161562  0.00186798  0.99922788    -0.49900
C51         C  0.85845588  0.01960487  0.06541787     0.42630
H52         H  0.17970025  0.12628393  0.96019640     0.06840
N53         N  0.99695124  0.96748424  0.13424728    -0.46610
C54         C  0.99349799  0.97442265  0.33711509     0.42480
N55         N  0.99127587  0.00217793  0.39899598     0.01370
C56         C  0.13346500  0.00628355  0.56749905    -0.06510
H57         H  0.97386452  0.84803677  0.55789420     0.06860
C58         C  0.85963947  0.91940721  0.56725899    -0.06860
Co59       Co  0.06095200  0.98849163  0.45536873     0.74180
N60         N  0.00280942  0.90750322  0.51537607    -0.26040
Co61       Co  0.01354570  0.96071899  0.55762346     0.74070
C62         C  0.85468605  0.86992276  0.57316197     0.42580
N63         N  0.90599834  0.00978893  0.49507317     0.00990
N64         N  0.93421388  0.92535948  0.56740589     0.01090
N65         N  0.15551946  0.02473596  0.50009437    -0.46880
H66         H  0.03875187  0.93696431  0.36059976     0.06850
N67         N  0.02041546  0.91424454  0.47683974     0.01380
N68         N  0.02259697  0.01521158  0.60107390     0.01120
C69         C  0.01946176  0.04134131  0.66345437     0.42720
N70         N  0.92123595  0.02124320  0.45607460    -0.25490
C71         C  0.15318856  0.09504336  0.43385868    -0.06410
N72         N  0.97847599  0.00262978  0.35969779    -0.46600
N73         N  0.03624761  0.01513920  0.64007636    -0.46820
C74         C  0.15936073  0.14502526  0.42790831     0.42490
N75         N  0.10661333  0.00483401  0.50536936     0.01360
N76         N  0.01061953  0.10870391  0.48701643    -0.25510
N77         N  0.01479334  0.97584487  0.40382675    -0.26010
N78         N  0.99107465  0.10022490  0.52496555     0.01000
H79         H  0.04670096  0.17279831  0.44877528     0.06890
H80         H  0.96784074  0.07245383  0.64145592     0.06930
N81         N  0.09170781  0.99432439  0.54452753    -0.26060
N82         N  0.90990751  0.95093773  0.56315847    -0.25670
N83         N  0.07933033  0.09065368  0.43382170     0.01370
C84         C  0.99420919  0.83709088  0.49114776     0.42770
C85         C  0.87917565  0.00686473  0.43275088    -0.06920
N86         N  0.99688250  0.03948808  0.59701227    -0.25670
H87         H  0.82974232  0.92892533  0.56355194     0.06910
N88         N  0.01813014  0.87262897  0.46149416    -0.46890
H89         H  0.87845370  0.01198642  0.39949722     0.06900
C90         C  0.02133939  0.17853056  0.51494317     0.42600
C91         C  0.01674379  0.95565420  0.36683649    -0.06420
Co92       Co  0.99992546  0.05599192  0.44334578     0.73820
N93         N  0.85689613  0.98686984  0.49980861    -0.46610
C94         C  0.17587453  0.02798570  0.53727574     0.42870
N95         N  0.11154494  0.13889255  0.42906690    -0.46600
Co96       Co  0.95091918  0.02627646  0.54546985     0.73890
C97         C  0.99346291  0.05792907  0.63445764    -0.06920
C98         C  0.98461143  0.86089918  0.52627776    -0.06490
N99         N  0.10274931  0.06414583  0.43772382    -0.26010
N100        N  0.90281958  0.87700656  0.57237329    -0.46780
H101        H  0.13403698  0.00003837  0.60055838     0.06870
C102        C  0.03217009  0.15658610  0.47899179    -0.06900
Cl103      Cl  0.00635208  0.00785584  0.50039130    -0.49900
C104        C  0.83642848  0.98224485  0.46248645     0.42630
H105        H  0.18254765  0.08480827  0.43770477     0.06840
N106        N  0.99427743  0.14130801  0.54225164    -0.46610
C107        C  0.16219608  0.49767042  0.04666485     0.42480
N108        N  0.11272845  0.50849516  0.00588567     0.01370
C109        C  0.94404069  0.59412926  0.05614703    -0.06510
H110        H  0.91179384  0.43934983  0.13954172     0.06860
C111        C  0.88384522  0.35234419  0.97813552    -0.06860
Co112      Co  0.05976533  0.55739796  0.05025098     0.74180
N113        N  0.96846281  0.48031765  0.09339261    -0.26040
Co114      Co  0.93114163  0.48680611  0.04076820     0.74070
C115        C  0.85144545  0.33223315  0.01401073     0.42580
N116        N  0.99667327  0.41709912  0.93428847     0.00990
N117        N  0.89995294  0.41096893  0.02361850     0.01090
N118        N  0.02904162  0.63861716  0.06214619    -0.46880
H119        H  0.13967813  0.53068261  0.10293486     0.06850
N120        N  0.01808059  0.50707917  0.09544585     0.01380
N121        N  0.89624928  0.49549523  0.98919379     0.01120
C122        C  0.84134850  0.50379627  0.95300902     0.42720
N123        N  0.04611799  0.44285679  0.93892468    -0.25490
C124        C  0.13520036  0.65312674  0.01510560    -0.06410
N125        N  0.14673336  0.49299612  0.00675168    -0.46600
N126        N  0.86019123  0.50808243  0.99151418    -0.46820
C127        C  0.17596775  0.66533922  0.98549392     0.42490
N128        N  0.01375616  0.59047548  0.05709399     0.01360
N129        N  0.04404390  0.52764186  0.90033067    -0.25510
N130        N  0.10568579  0.52421327  0.04271531    -0.26010
N131        N  0.99413346  0.50308222  0.89769633     0.01000
H132        H  0.10214596  0.56987394  0.85485916     0.06890
H133        H  0.86354154  0.47476071  0.89338837     0.06930
N134        N  0.96421243  0.56348602  0.05350311    -0.26060
N135        N  0.91065043  0.40038400  0.98603060    -0.25670
N136        N  0.11460083  0.59355271  0.96965547     0.01370
C137        C  0.99712237  0.47705116  0.15724124     0.42770
C138        C  0.06556970  0.41154520  0.93665841    -0.06920
N139        N  0.90288252  0.48231936  0.95119628    -0.25670
H140        H  0.88153956  0.33552277  0.94775856     0.06910
N141        N  0.03629813  0.50617031  0.13237577    -0.46890
H142        H  0.10486162  0.42156957  0.94126486     0.06900
C143        C  0.01771512  0.53716004  0.83770248     0.42600
C144        C  0.13543654  0.51885858  0.07056316    -0.06420
Co145      Co  0.08017308  0.51849603  0.95289766     0.73820
N146        N  0.98055639  0.36873233  0.93010742    -0.46610
C147        C  0.98707994  0.64402804  0.06228819     0.42870
N148        N  0.16044804  0.62741601  0.95746360    -0.46600
Co149      Co  0.95083350  0.45084055  0.94165742     0.73890
C150        C  0.86963430  0.48626148  0.92583324    -0.06920
C151        C  0.95134307  0.45962019  0.13105576    -0.06490
N152        N  0.10146451  0.60693662  0.00507649    -0.26010
N153        N  0.86239435  0.37093127  0.04102115    -0.46780
H154        H  0.90450466  0.58321497  0.05278417     0.06870
C155        C  0.06250379  0.55017495  0.86356597    -0.06900
Cl156      Cl  0.00543284  0.50347729  0.99635545    -0.49900
C157        C  0.02186821  0.36229864  0.93063592     0.42630
H158        H  0.13678798  0.67014992  0.04526492     0.06840
N159        N  0.97719738  0.50713814  0.86094660    -0.46610
C160        C  0.99210587  0.33506854  0.46611730     0.42480
N161        N  0.98830969  0.39405450  0.49813924     0.01370
C162        C  0.92226281  0.56727373  0.43623145    -0.06510
H163        H  0.07386023  0.57923343  0.35006154     0.06860
C164        C  0.16476329  0.61471636  0.51152416    -0.06860
Co165      Co  0.94910595  0.44745654  0.44663667     0.74180
N166        N  0.03248624  0.52877618  0.39972170    -0.26040
Co167      Co  0.02952196  0.57275605  0.44950309     0.74070
C168        C  0.18275704  0.65736855  0.48511935     0.42580
N169        N  0.09149448  0.51019317  0.56196518     0.00990
N170        N  0.10664266  0.60240230  0.46663439     0.01090
N171        N  0.87291991  0.48419882  0.43458912    -0.46880
H172        H  0.96367406  0.35092502  0.40456451     0.06850
N173        N  0.00211277  0.48031781  0.39984943     0.01380
N174        N  0.02498076  0.61300221  0.49764389     0.01120
C175        C  0.02816609  0.67653485  0.52687826     0.42720
N176        N  0.06190314  0.46184702  0.55933871    -0.25490
C177        C  0.84815033  0.39097655  0.48521280    -0.06410
N178        N  0.99873068  0.35772714  0.50318326    -0.46600
N179        N  0.01775652  0.65103033  0.49116788    -0.46820
C180        C  0.82613830  0.36022195  0.52115149     0.42490
N181        N  0.92153715  0.49662625  0.43608067     0.01360
N182        N  0.98175913  0.47902494  0.59708522    -0.25510
N183        N  0.97484689  0.39701084  0.45968571    -0.26010
N184        N  0.01143699  0.52761711  0.59673509     0.01000
H185        H  0.94126611  0.42838284  0.64687279     0.06890
H186        H  0.05757128  0.66195394  0.58859719     0.06930
N187        N  0.95157539  0.54497770  0.43761269    -0.26060
N188        N  0.11647172  0.58739394  0.50184495    -0.25670
N189        N  0.90675617  0.40771368  0.53095840     0.01370
C190        C  0.02993699  0.49483501  0.33676424     0.42770
C191        C  0.09151525  0.44004220  0.56287948    -0.06920
N192        N  0.04000727  0.61122658  0.53578001    -0.25670
H193        H  0.18019026  0.61067504  0.54009062     0.06910
N194        N  0.99898517  0.45905870  0.36304300    -0.46890
H195        H  0.07868157  0.40058740  0.56064260     0.06900
C196        C  0.98361054  0.51280080  0.65989860     0.42600
C197        C  0.97564647  0.36023824  0.43665851    -0.06420
Co198      Co  0.98391138  0.43480015  0.54720172     0.73820
N199        N  0.13978032  0.52316306  0.56765058    -0.46610
C200        C  0.86963968  0.52644399  0.43424706     0.42870
N201        N  0.86499488  0.37193130  0.54842429    -0.46600
Co202      Co  0.06461767  0.55926701  0.54948846     0.73890
C203        C  0.04291438  0.65068611  0.55734852    -0.06920
C204        C  0.05238084  0.54153892  0.36111640    -0.06490
N205        N  0.89710381  0.41659329  0.49301122    -0.26010
N206        N  0.14530878  0.64632783  0.45654241    -0.46780
H207        H  0.93558749  0.60670431  0.43977071     0.06870
C208        C  0.96244024  0.46608444  0.63577331    -0.06900
Cl209      Cl  0.00672343  0.50351204  0.49826966    -0.49900
C210        C  0.14360090  0.48135213  0.56859016     0.42630
H211        H  0.83252532  0.38676543  0.45430721     0.06840
N212        N  0.01409850  0.54890562  0.63354545    -0.46610
C213        C  0.34194533  0.99340001  0.94925442     0.42480
N214        N  0.42231061  0.02154189  0.95511134     0.01370
C215        C  0.53888674  0.88136042  0.00539914    -0.06510
H216        H  0.40418620  0.83399398  0.08654954     0.06860
C217        C  0.50212005  0.04416344  0.14306643    -0.06860
Co218      Co  0.45023700  0.94078074  0.96149554     0.74180
N219        N  0.42790394  0.89689074  0.04583696    -0.26040
Co220      Co  0.50502812  0.94359561  0.05650433     0.74070
C221        C  0.47641775  0.99978911  0.16801624     0.42580
N222        N  0.50841397  0.10239947  0.05064839     0.00990
N223        N  0.49238233  0.97971159  0.10743449     0.01090
N224        N  0.50204811  0.87592313  0.94325577    -0.46880
H225        H  0.32679381  0.91233147  0.94967615     0.06850
N226        N  0.40761157  0.90220849  0.01139878     0.01380
N227        N  0.58289841  0.98963341  0.06351906     0.01120
C228        C  0.66362551  0.01766162  0.06586862     0.42720
N229        N  0.48734137  0.10009850  0.01433795    -0.25490
C230        C  0.49691538  0.96371074  0.87481979    -0.06410
N231        N  0.38703873  0.03547323  0.95213257    -0.46600
N232        N  0.61829808  0.97568793  0.06496166    -0.46820
C233        C  0.51752485  0.00638060  0.84762330     0.42490
N234        N  0.49675660  0.90756734  0.96897552     0.01360
N235        N  0.57798397  0.11269101  0.97206043    -0.25510
N236        N  0.40333324  0.97294775  0.95468353    -0.26010
N237        N  0.59726673  0.11141455  0.00853816     0.01000
H238        H  0.60910955  0.16385666  0.92051236     0.06890
H239        H  0.67858820  0.09878663  0.06574072     0.06930
N240        N  0.51742890  0.91024384  0.00552255    -0.26060
N241        N  0.51106812  0.02829239  0.10656481    -0.25670
N242        N  0.51141421  0.03012135  0.91009322     0.01370
C243        C  0.35245275  0.83116682  0.03287871     0.42770
C244        C  0.46504792  0.12842084  0.01626403    -0.06920
N245        N  0.60197696  0.03826555  0.06340629    -0.25670
H246        H  0.51623662  0.08261858  0.15227362     0.06910
N247        N  0.36241273  0.86535031  0.00399935    -0.46890
H248        H  0.44940303  0.13758624  0.98973468     0.06900
C249        C  0.65812994  0.17189119  0.97806623     0.42600
C250        C  0.35278701  0.95182276  0.95053664    -0.06420
Co251      Co  0.50010494  0.06703128  0.96204324     0.73820
N252        N  0.50448240  0.13417746  0.07688745    -0.46610
C253        C  0.52952213  0.85872192  0.96391976     0.42870
N254        N  0.52571184  0.04660922  0.87146033    -0.46600
Co255      Co  0.55498741  0.07056451  0.05778575     0.73890
C256        C  0.65271057  0.05929633  0.06535526    -0.06920
C257        C  0.39541783  0.85225994  0.06192846    -0.06490
N258        N  0.49306643  0.98160336  0.91200813    -0.26010
N259        N  0.47290787  0.96117929  0.14448868    -0.46780
H260        H  0.55307040  0.87302677  0.03318698     0.06870
C261        C  0.61416853  0.15067704  0.95023451    -0.06900
Cl262      Cl  0.50274789  0.00557134  0.00930483    -0.49900
C263        C  0.47748537  0.15240442  0.05743619     0.42630
H264        H  0.48118535  0.92469975  0.86694929     0.06840
N265        N  0.64447230  0.14599370  0.01325616    -0.46610
C266        C  0.52017173  0.15863230  0.57692756     0.42480
N267        N  0.49402485  0.07939357  0.57229357     0.01370
C268        C  0.62621374  0.96853172  0.48455607    -0.06510
H269        H  0.65995808  0.12724369  0.41424455     0.06860
C270        C  0.45633537  0.00989369  0.37336289    -0.06860
Co271      Co  0.57660445  0.05344548  0.55323008     0.74180
N272        N  0.61217385  0.08628555  0.46657995    -0.26040
Co273      Co  0.56463884  0.01013094  0.45032877     0.74070
C274        C  0.49982055  0.03320669  0.34530041     0.42580
N275        N  0.40430151  0.00312270  0.47728669     0.00990
N276        N  0.52508242  0.02609287  0.40598186     0.01090
N277        N  0.64780451  0.00455304  0.54831934    -0.46880
H278        H  0.60325276  0.17593523  0.56928672     0.06850
N279        N  0.61356789  0.09937017  0.50623213     0.01380
N280        N  0.51865063  0.93352618  0.43817738     0.01120
C281        C  0.49147777  0.85375097  0.43542464     0.42720
N282        N  0.41211269  0.02120856  0.51566790    -0.25490
C283        C  0.55627029  0.00455716  0.63850763    -0.06410
N284        N  0.47863857  0.11327271  0.57584956    -0.46600
N285        N  0.53342123  0.89910887  0.43457790    -0.46820
C286        C  0.51330423  0.98479397  0.66740745     0.42490
N287        N  0.60988449  0.00961632  0.53247704     0.01360
N288        N  0.39924665  0.92781992  0.54470227    -0.25510
N289        N  0.54366890  0.09915862  0.56960133    -0.26010
N290        N  0.40022035  0.91345578  0.50577264     0.01000
H291        H  0.34392563  0.89204139  0.59418109     0.06890
H292        H  0.40875156  0.83819257  0.44255943     0.06930
N293        N  0.60026159  0.99179217  0.49402057    -0.26060
N294        N  0.47550731  0.00585994  0.40953089    -0.25670
N295        N  0.48737542  0.98803738  0.60571215     0.01370
C296        C  0.67212991  0.16474319  0.47975178     0.42770
C297        C  0.38634353  0.04535736  0.52254556    -0.06920
N298        N  0.46923390  0.91393024  0.44191125    -0.25670
H299        H  0.41644861  0.99110313  0.36576097     0.06910
N300        N  0.64799687  0.14483902  0.51498814    -0.46890
H301        H  0.38178096  0.05932438  0.55262844     0.06900
C302        C  0.33519732  0.85165595  0.53052755     0.42600
C303        C  0.56363872  0.14914079  0.57287910    -0.06420
Co304      Co  0.44763512  0.00348147  0.56048445     0.73820
N305        N  0.36904937  0.00973577  0.45842976    -0.46610
C306        C  0.65838370  0.97737957  0.51959948     0.42870
N307        N  0.47188954  0.97512945  0.64469204    -0.46600
Co308      Co  0.43690755  0.95920191  0.45814129     0.73890
C309        C  0.44863331  0.86404312  0.43946317    -0.06920
C310        C  0.64860172  0.12641302  0.44652249    -0.06490
N311        N  0.53691312  0.00684728  0.60183054    -0.26010
N312        N  0.54111625  0.04191240  0.36769028    -0.46780
H313        H  0.62961961  0.95590354  0.45353023     0.06870
C314        C  0.35849958  0.89025121  0.56352623    -0.06900
Cl315      Cl  0.50649624  0.00649038  0.50572779    -0.49900
C316        C  0.35738597  0.03753976  0.48522463     0.42630
H317        H  0.59630391  0.02205749  0.64521072     0.06840
N318        N  0.36396716  0.86897585  0.49675122    -0.46610
C319        C  0.35719032  0.51312824  0.07440388     0.42480
N320        N  0.41491273  0.49201562  0.06665323     0.01370
C321        C  0.65615770  0.62927838  0.98911479    -0.06510
H322        H  0.53014395  0.63975758  0.89986154     0.06860
C323        C  0.45806519  0.44798556  0.87049624    -0.06860
Co324      Co  0.51632109  0.57664749  0.04792470     0.74180
N325        N  0.51992768  0.60205733  0.95818119    -0.26040
Co326      Co  0.55537581  0.55902543  0.94965577     0.74070
C327        C  0.47368654  0.49149276  0.84363093     0.42580
N328        N  0.41228457  0.39825539  0.97696625     0.00990
N329        N  0.50319352  0.51560302  0.90536094     0.01090
N330        N  0.63188754  0.64879608  0.05033807    -0.46880
H331        H  0.41412759  0.59571858  0.06293724     0.06850
N332        N  0.50411054  0.60793671  0.99530801     0.01380
N333        N  0.59111422  0.51639326  0.94126352     0.01120
C334        C  0.64668554  0.49338558  0.92790583     0.42720
N335        N  0.39945720  0.40732189  0.01429087    -0.25490
C336        C  0.54595355  0.56225063  0.13816924    -0.06410
N337        N  0.36589813  0.47407644  0.07351063    -0.46600
N338        N  0.63956777  0.53331864  0.93213059    -0.46820
C339        C  0.53071051  0.51925383  0.16545627     0.42490
N340        N  0.59333407  0.61086177  0.03153395     0.01360
N341        N  0.48721653  0.40736698  0.04984597    -0.25510
N342        N  0.43918017  0.54058493  0.06204644    -0.26010
N343        N  0.50186312  0.40152338  0.01218051     0.01000
H344        H  0.48333245  0.37276464  0.10879518     0.06890
H345        H  0.58850071  0.41113148  0.93776808     0.06930
N346        N  0.60663843  0.60092295  0.99472276    -0.26060
N347        N  0.47848266  0.46677056  0.90798475    -0.25670
N348        N  0.50306418  0.49395960  0.10337251     0.01370
C349        C  0.49564117  0.65996060  0.95645472     0.42770
C350        C  0.35007009  0.37837441  0.02033921    -0.06920
N351        N  0.56594452  0.46773874  0.94474454    -0.25670
H352        H  0.43993040  0.40900377  0.86198130     0.06910
N353        N  0.48992942  0.64244922  0.99567852    -0.46890
H354        H  0.33034126  0.37446884  0.04967851     0.06900
C355        C  0.51611145  0.35289399  0.05037121     0.42600
C356        C  0.40577331  0.55756392  0.06650553    -0.06420
Co357      Co  0.45112279  0.44984153  0.05895876     0.73820
N358        N  0.37357723  0.36058195  0.95805090    -0.46610
C359        C  0.67314993  0.66152354  0.02552544     0.42870
N360        N  0.50408874  0.47864852  0.14139883    -0.46600
Co361      Co  0.48902104  0.43248168  0.95995765     0.73890
C362        C  0.59800079  0.44974524  0.93694115    -0.06920
C363        C  0.51573994  0.63305913  0.93153478    -0.06490
N364        N  0.52674903  0.54281280  0.10048463    -0.26010
N365        N  0.50162302  0.53154042  0.86779005    -0.46780
H366        H  0.67616848  0.63262377  0.96002350     0.06870
C367        C  0.49466381  0.37807092  0.07629038    -0.06900
Cl368      Cl  0.50300696  0.50450073  0.00414842    -0.49900
C369        C  0.33263771  0.34708144  0.98339627     0.42630
H370        H  0.56214785  0.60115098  0.14657560     0.06840
N371        N  0.51879077  0.36920997  0.01116736    -0.46610
C372        C  0.34635801  0.50072293  0.56025399     0.42480
N373        N  0.40676412  0.48222685  0.55413805     0.01370
C374        C  0.66070435  0.64794039  0.50748974    -0.06510
H375        H  0.54878237  0.65658085  0.40777009     0.06860
C376        C  0.48486223  0.46196505  0.36965254    -0.06860
Co377      Co  0.51035374  0.57365576  0.55033073     0.74180
N378        N  0.52913326  0.61148710  0.46297459    -0.26040
Co379      Co  0.56865181  0.57013285  0.45832915     0.74070
C380        C  0.50085310  0.50689265  0.34490839     0.42580
N381        N  0.42409319  0.39574791  0.46535473     0.00990
N382        N  0.52519945  0.52761589  0.40830783     0.01090
N383        N  0.62444227  0.65452710  0.56758985    -0.46880
H384        H  0.40294612  0.58475811  0.55961675     0.06850
N385        N  0.50629854  0.61234702  0.49825404     0.01380
N386        N  0.60870588  0.53006183  0.45546677     0.01120
C387        C  0.66955950  0.51186541  0.45327193     0.42720
N388        N  0.40338534  0.39889854  0.50108052    -0.25490
C389        C  0.52995540  0.55009380  0.64017674    -0.06410
N390        N  0.35675910  0.46260780  0.55718849    -0.46600
N391        N  0.65879967  0.54980675  0.45334649    -0.46820
C392        C  0.51271480  0.50513997  0.66527121     0.42490
N393        N  0.59134237  0.61624244  0.54429251     0.01360
N394        N  0.48716126  0.40125600  0.54716749    -0.25510
N395        N  0.43039995  0.53146149  0.55446337    -0.26010
N396        N  0.50949208  0.40008858  0.51170625     0.01000
H397        H  0.47028574  0.35752214  0.60320690     0.06890
H398        H  0.61287077  0.42777440  0.45482541     0.06930
N399        N  0.61194984  0.61280691  0.50859699    -0.26060
N400        N  0.50185232  0.47843936  0.40834592    -0.25670
N401        N  0.49004732  0.48452844  0.60143589     0.01370
C402        C  0.50458875  0.67020922  0.46148939     0.42770
C403        C  0.35445817  0.36392681  0.50182239    -0.06920
N404        N  0.58518961  0.48089598  0.45628978    -0.25670
H405        H  0.46828860  0.42362434  0.35938150     0.06910
N406        N  0.49143930  0.64671548  0.49866652    -0.46890
H407        H  0.32996818  0.35603147  0.52881330     0.06900
C408        C  0.51558111  0.34550428  0.54974065     0.42600
C409        C  0.39524500  0.54653360  0.55837539    -0.06420
Co410      Co  0.44681492  0.44198306  0.55137805     0.73820
N411        N  0.39089927  0.35800463  0.44162394    -0.46610
C412        C  0.66979474  0.67628201  0.54658915     0.42870
N413        N  0.48823498  0.46633147  0.63887198    -0.46600
Co414      Co  0.50519147  0.43850937  0.45958981     0.73890
C415        C  0.62057564  0.46599738  0.45495162    -0.06920
C416        C  0.52967775  0.64647341  0.43768060    -0.06490
N417        N  0.51361335  0.53367172  0.60138509    -0.26010
N418        N  0.52607137  0.54583633  0.37103407    -0.46780
H419        H  0.68479365  0.65617406  0.48019378     0.06870
C420        C  0.48898360  0.36791351  0.57313147    -0.06900
Cl421      Cl  0.50767860  0.50606696  0.50488479    -0.49900
C422        C  0.34533536  0.33605264  0.46236689     0.42630
H423        H  0.54709448  0.58856658  0.65015683     0.06840
N424        N  0.52571270  0.36675366  0.51164516    -0.46610
C425        C  0.47967345  0.49386385  0.79751421    -0.00130
C426        C  0.47619192  0.45264571  0.77509738    -0.12010
C427        C  0.48817328  0.45578914  0.73242695     0.02100
C428        C  0.50377397  0.50095559  0.71111277    -0.00220
C429        C  0.50680818  0.54194335  0.73353562    -0.11950
C430        C  0.49478376  0.53882449  0.77603193     0.01990
H431        H  0.46556312  0.41812409  0.79102634     0.14970
H432        H  0.51766103  0.57663702  0.71786108     0.14970
C433        C  0.49814719  0.58266083  0.79645542     0.36620
C434        C  0.48514453  0.41223843  0.71179160     0.36530
N435        N  0.50116590  0.61803012  0.81253518    -0.43720
N436        N  0.48255857  0.37715468  0.69549515    -0.43720
C437        C  0.52386709  0.51784933  0.21150156    -0.00130
C438        C  0.48006156  0.47811326  0.22871408    -0.12010
C439        C  0.47098005  0.47456828  0.27179892     0.02100
C440        C  0.50647814  0.51091498  0.29887718    -0.00220
C441        C  0.54979092  0.55123031  0.28171595    -0.11950
C442        C  0.55876745  0.55489777  0.23850080     0.01990
H443        H  0.45215391  0.44985797  0.20840454     0.14970
H444        H  0.57757555  0.57938407  0.30217197     0.14970
C445        C  0.60505001  0.59581157  0.22300987     0.36620
C446        C  0.42404278  0.43427889  0.28711306     0.36530
N447        N  0.64223159  0.62862223  0.21068759    -0.43720
N448        N  0.38631820  0.40209593  0.29932044    -0.43720
C449        C  0.50105538  0.71659190  0.45232602    -0.00130
C450        C  0.45977122  0.72099577  0.46867513    -0.12010
C451        C  0.45513885  0.76419429  0.46326028     0.02100
C452        C  0.49262632  0.80531136  0.44079047    -0.00220
C453        C  0.53427107  0.80104860  0.42481036    -0.11950
C454        C  0.53880557  0.75771742  0.43026669     0.01990
H455        H  0.43089145  0.69042769  0.48637819     0.14970
H456        H  0.56403453  0.83216550  0.40826577     0.14970
C457        C  0.58436750  0.75816478  0.41511260     0.36620
C458        C  0.41268768  0.76552529  0.48348744     0.36530
N459        N  0.62123789  0.75909629  0.40306222    -0.43720
N460        N  0.37841020  0.76567359  0.50018630    -0.43720
C461        C  0.51522152  0.29733619  0.55841346    -0.00130
C462        C  0.55213118  0.29646711  0.58433830    -0.12010
C463        C  0.55435672  0.25205015  0.59085335     0.02100
C464        C  0.51894045  0.20685432  0.57157133    -0.00220
C465        C  0.48117989  0.20769990  0.54648413    -0.11950
C466        C  0.47946176  0.25220860  0.53957217     0.01990
H467        H  0.57968929  0.33071071  0.59923050     0.14970
H468        H  0.45337847  0.17361730  0.53150443     0.14970
C469        C  0.44053113  0.25112608  0.51306711     0.36620
C470        C  0.59222303  0.25346419  0.61877209     0.36530
N471        N  0.40979176  0.25155449  0.49204387    -0.43720
N472        N  0.62238106  0.25446953  0.64136335    -0.43720
C473        C  0.51522516  0.99256891  0.71342204    -0.00130
C474        C  0.47380615  0.95891645  0.73710672    -0.12010
C475        C  0.47259083  0.96417073  0.78051030     0.02100
C476        C  0.51428379  0.00330996  0.80142968    -0.00220
C477        C  0.55442537  0.03863042  0.77771147    -0.11950
C478        C  0.55506155  0.03408808  0.73405904     0.02230
H479        H  0.44198628  0.92836888  0.72155225     0.14970
H480        H  0.58565690  0.06963154  0.79337998     0.14970
C481        C  0.59563561  0.07426808  0.71170009     0.36620
C482        C  0.42682001  0.93012842  0.80224732     0.36530
N483        N  0.62817339  0.10697699  0.69418529    -0.43720
N484        N  0.38994757  0.90289687  0.81944047    -0.43720
C485        C  0.49554024  0.02517297  0.29953409    -0.00130
C486        C  0.45656255  0.02894469  0.27910631    -0.12010
C487        C  0.44794846  0.01808830  0.23646127     0.02100
C488        C  0.47789742  0.00215218  0.21373859    -0.00220
C489        C  0.51623636  0.99740151  0.23398742    -0.11950
C490        C  0.52550384  0.00890253  0.27653624     0.01990
H491        H  0.43292994  0.04069948  0.29648641     0.14970
H492        H  0.54010680  0.98627780  0.21615988     0.14970
C493        C  0.56522280  0.00257047  0.29554349     0.36620
C494        C  0.40826409  0.02360686  0.21648392     0.36530
N495        N  0.59709934  0.99743156  0.31060910    -0.43720
N496        N  0.37644007  0.02785636  0.20032698    -0.43720
C497        C  0.53032179  0.81173898  0.95391367    -0.00130
C498        C  0.49593295  0.77820274  0.92450004    -0.12010
C499        C  0.48661580  0.72877951  0.92209781     0.02100
C500        C  0.51078047  0.71251463  0.95025304    -0.00220
C501        C  0.54902167  0.74707207  0.97600152    -0.11950
C502        C  0.55983011  0.79646643  0.97751313     0.01990
H503        H  0.47438311  0.78968257  0.90497725     0.14970
H504        H  0.56964118  0.73495920  0.99609782     0.14970
C505        C  0.60055914  0.82950779  0.00462981     0.36620
C506        C  0.45135585  0.69523366  0.89163428     0.36530
N507        N  0.63295200  0.85509867  0.02692945    -0.43720
N508        N  0.42369777  0.66852959  0.86674713    -0.43720
C509        C  0.49239547  0.20533421  0.06120775    -0.00130
C510        C  0.52341794  0.23615535  0.02952550    -0.12010
C511        C  0.53635621  0.28593051  0.02843380     0.02100
C512        C  0.51558682  0.30545250  0.05836493    -0.00220
C513        C  0.48765212  0.27560052  0.09221330    -0.11950
C514        C  0.47667586  0.22569765  0.09411530     0.01990
H515        H  0.53754447  0.22107297  0.00504543     0.14970
H516        H  0.47240429  0.29023417  0.11604006     0.14970
C517        C  0.44791896  0.19570802  0.12892063     0.36620
C518        C  0.57051528  0.31536236  0.99558129     0.36530
N519        N  0.42526271  0.17162844  0.15696687    -0.43720
N520        N  0.59822410  0.33802340  0.96915412    -0.43720
C521        C  0.71774944  0.21308268  0.48244376    -0.00130
C522        C  0.71354765  0.25363662  0.46855479    -0.12010
C523        C  0.74486402  0.30123641  0.48461699     0.02100
C524        C  0.78377517  0.30959880  0.51342926    -0.00220
C525        C  0.78800553  0.26886102  0.52727453    -0.11950
C526        C  0.75478905  0.22089382  0.51292424     0.01990
H527        H  0.68279818  0.24751541  0.44781485     0.14970
H528        H  0.81753522  0.27438567  0.54911813     0.14970
C529        C  0.75743097  0.18013932  0.53248482     0.36620
C530        C  0.73483462  0.34029409  0.47141820     0.36530
N531        N  0.75980595  0.14816567  0.54912221    -0.43720
N532        N  0.72580860  0.37055988  0.45972195    -0.43720
C533        C  0.21644877  0.70896393  0.50139566    -0.00130
C534        C  0.22938933  0.74809456  0.47383461    -0.12010
C535        C  0.26116768  0.79714323  0.48629903     0.02100
C536        C  0.28533421  0.80760420  0.52567732    -0.00220
C537        C  0.26977407  0.77007361  0.55463697    -0.11950
C538        C  0.23422486  0.72136324  0.54377613     0.01990
H539        H  0.21461695  0.74045145  0.44230797     0.14970
H540        H  0.28725631  0.77839711  0.58523627     0.14970
C541        C  0.21739324  0.68740020  0.57824416     0.36620
C542        C  0.26955609  0.83627536  0.45759349     0.36530
N543        N  0.20481356  0.66163956  0.60694678    -0.43720
N544        N  0.27614078  0.86776576  0.43487481    -0.43720
C545        C  0.82067750  0.52711663  0.44162813    -0.00130
C546        C  0.78351693  0.49000430  0.46683210    -0.12010
C547        C  0.73495105  0.48533987  0.47205312     0.02100
C548        C  0.72195146  0.51775933  0.45119902    -0.00220
C549        C  0.75997212  0.55672002  0.42787785    -0.11950
C550        C  0.80890099  0.56167586  0.42305767     0.01990
H551        H  0.79266498  0.46457700  0.48291957     0.14970
H552        H  0.75105898  0.58265376  0.41237222     0.14970
C553        C  0.84550720  0.60122013  0.39750276     0.36620
C554        C  0.70004051  0.44837926  0.50055491     0.36530
N555        N  0.87485400  0.63304428  0.37705568    -0.43720
N556        N  0.67222252  0.41883440  0.52352553    -0.43720
C557        C  0.19386252  0.48234477  0.56825074    -0.00130
C558        C  0.23241382  0.51670530  0.59446670    -0.12010
C559        C  0.28205395  0.52329652  0.59247378     0.02100
C560        C  0.29417883  0.49482314  0.56404297    -0.00220
C561        C  0.25560826  0.46010934  0.53816041    -0.11950
C562        C  0.20640208  0.45470971  0.53929337     0.01990
H563        H  0.22385693  0.53904871  0.61632554     0.14970
H564        H  0.26461988  0.43889516  0.51542855     0.14970
C565        C  0.17175681  0.42562898  0.50687329     0.36620
C566        C  0.31947583  0.55867214  0.62070826     0.36530
N567        N  0.14479304  0.40380534  0.47983669    -0.43720
N568        N  0.34944518  0.58700084  0.64340126    -0.43720
C569        C  0.99136177  0.51887359  0.70563838    -0.00130
C570        C  0.00732265  0.48907903  0.72662141    -0.12010
C571        C  0.01925920  0.49672780  0.76923381     0.02100
C572        C  0.01470892  0.53436460  0.79168906    -0.00220
C573        C  0.99864877  0.56405017  0.77080950    -0.11950
C574        C  0.98776465  0.55710594  0.72795858     0.01990
H575        H  0.01128560  0.46030882  0.70957717     0.14970
H576        H  0.99379694  0.59212627  0.78815477     0.14970
C577        C  0.97138682  0.58856299  0.70774062     0.36620
C578        C  0.03487002  0.46471949  0.78958953     0.36530
N579        N  0.95817461  0.61363694  0.69140447    -0.43720
N580        N  0.04745820  0.43922757  0.80604891    -0.43720
C581        C  0.00359170  0.47813703  0.20357662    -0.00130
C582        C  0.05285998  0.50835143  0.21957798    -0.12010
C583        C  0.06231502  0.51443768  0.26255099     0.02100
C584        C  0.02235150  0.48936641  0.29093805    -0.00220
C585        C  0.97340687  0.45816366  0.27538029    -0.11950
C586        C  0.96358363  0.45254841  0.23234218     0.01990
H587        H  0.08458338  0.52812890  0.19848914     0.14970
H588        H  0.94222346  0.43863490  0.29704987     0.14970
C589        C  0.91209523  0.42034336  0.21946025     0.36620
C590        C  0.11358957  0.54563396  0.27666248     0.36530
N591        N  0.87038132  0.39431703  0.21016858    -0.43720
N592        N  0.15469539  0.57057999  0.28797007    -0.43720
C593        C  0.70502561  0.21887602  0.97739710    -0.00130
C594        C  0.74802088  0.21591086  0.96506930    -0.12010
C595        C  0.79542297  0.24932105  0.98096930     0.02100
C596        C  0.80101291  0.28941780  0.00705620    -0.00220
C597        C  0.75810867  0.29363603  0.01795180    -0.11950
C598        C  0.71024522  0.25813713  0.00410652     0.01990
H599        H  0.74385893  0.18457610  0.94607686     0.14970
H600        H  0.76187059  0.32463402  0.03718122     0.14970
C601        C  0.66688654  0.26088452  0.02042435     0.36620
C602        C  0.83714345  0.24007315  0.97115300     0.36530
N603        N  0.63296732  0.26376756  0.03474149    -0.43720
N604        N  0.86974702  0.23160873  0.96282198    -0.43720
C605        C  0.22924855  0.69636163  0.99744956    -0.00130
C606        C  0.26377342  0.72452516  0.96673821    -0.12010
C607        C  0.30978902  0.76487258  0.97820158     0.02100
C608        C  0.31943244  0.77898079  0.02109805    -0.00220
C609        C  0.28955005  0.74554008  0.05150990    -0.11950
C610        C  0.24524361  0.70296398  0.03979029     0.01990
H611        H  0.25346534  0.71720862  0.93404094     0.14970
H612        H  0.29873733  0.75425306  0.08427252     0.14970
C613        C  0.21720219  0.66739333  0.07183046     0.36620
C614        C  0.34480261  0.79269035  0.94515525     0.36530
N615        N  0.19511190  0.63905790  0.09771384    -0.43720
N616        N  0.37276141  0.81501410  0.91872168    -0.43720
C617        C  0.69677920  0.49686337  0.93237522    -0.00130
C618        C  0.72265653  0.51692403  0.96955997    -0.12010
C619        C  0.77000669  0.52070833  0.97648389     0.02100
C620        C  0.79299117  0.50443906  0.94524617    -0.00220
C621        C  0.76733204  0.48571974  0.90723602    -0.11950
C622        C  0.71941618  0.48170069  0.90072774     0.01990
H623        H  0.70523963  0.52903271  0.99373359     0.14970
H624        H  0.78406085  0.47334842  0.88282936     0.14970
C625        C  0.69449890  0.46280837  0.86123432     0.36620
C626        C  0.79263092  0.54067120  0.01660235     0.36530
N627        N  0.67451202  0.44793682  0.82951347    -0.43720
N628        N  0.80914034  0.55632348  0.04925723    -0.43720
C629        C  0.30604558  0.50777127  0.07126876    -0.00130
C630        C  0.26921790  0.46674002  0.04893470    -0.12010
C631        C  0.22129715  0.46175300  0.04201006     0.02100
C632        C  0.20932111  0.49777858  0.05830457    -0.00220
C633        C  0.24510176  0.53730691  0.08264106    -0.11950
C634        C  0.29342217  0.54274737  0.08897218     0.01990
H635        H  0.27839604  0.43930823  0.03558795     0.14970
H636        H  0.23614178  0.56514375  0.09530200     0.14970
C637        C  0.32900390  0.58407072  0.11407225     0.36620
C638        C  0.18512239  0.41943306  0.01804322     0.36530
N639        N  0.35747176  0.61715518  0.13427412    -0.43720
N640        N  0.15609534  0.38551529  0.99891892    -0.43720
C641        C  0.80758479  0.82019493  0.56731652    -0.00130
C642        C  0.76469727  0.80603718  0.59330800    -0.12010
C643        C  0.71999658  0.75956263  0.58810840     0.02100
C644        C  0.71700127  0.72558605  0.55615608    -0.00220
C645        C  0.76024972  0.74036182  0.53032776    -0.11950
C646        C  0.80423278  0.78680094  0.53506965     0.01990
H647        H  0.76605407  0.83140218  0.61783584     0.14970
H648        H  0.75985734  0.71599781  0.50537500     0.14970
C649        C  0.84398153  0.80075774  0.50414775     0.36620
C650        C  0.67758161  0.74836791  0.61555726     0.36530
N651        N  0.87535743  0.81180261  0.47894402    -0.43720
N652        N  0.64357200  0.73954191  0.63759638    -0.43720
C653        C  0.29792280  0.28710339  0.45164260    -0.00130
C654        C  0.25793498  0.26599366  0.48125998    -0.12010
C655        C  0.21352587  0.22036525  0.47399081     0.02100
C656        C  0.20679280  0.19391850  0.43606131    -0.00220
C657        C  0.24637811  0.21429099  0.40630578    -0.11950
C658        C  0.29120670  0.26015875  0.41359998     0.01990
H659        H  0.26110423  0.28462801  0.51088121     0.14970
H660        H  0.24218780  0.19445817  0.37704655     0.14970
C661        C  0.32941164  0.27874511  0.38122615     0.36620
C662        C  0.17589607  0.20025803  0.50683197     0.36530
N663        N  0.36000842  0.29365308  0.35518755    -0.43720
N664        N  0.14564866  0.18391547  0.53304936    -0.43720
C665        C  0.70813122  0.98256195  0.50906736    -0.00130
C666        C  0.71162892  0.93880039  0.50987884    -0.12010
C667        C  0.74888500  0.93434399  0.48671238     0.02100
C668        C  0.78499268  0.97491567  0.46337358    -0.00220
C669        C  0.77997711  0.01761967  0.46055741    -0.11950
C670        C  0.74163002  0.02149947  0.48259487     0.01990
H671        H  0.68359844  0.90708221  0.52708046     0.14970
H672        H  0.80798546  0.04924748  0.44325247     0.14970
C673        C  0.73506543  0.06398126  0.47426908     0.36620
C674        C  0.75143304  0.88865804  0.48925092     0.36530
N675        N  0.73029197  0.09787524  0.46565987    -0.43720
N676        N  0.75323621  0.85195209  0.49123107    -0.43720
C677        C  0.30708875  0.03208613  0.49176127    -0.00130
C678        C  0.27145887  0.98931812  0.51260966    -0.12010
C679        C  0.23100760  0.98924757  0.53463611     0.02100
C680        C  0.22624433  0.03270969  0.53631808    -0.00220
C681        C  0.26277768  0.07570137  0.51621714    -0.11950
C682        C  0.30217630  0.07518878  0.49323997     0.01990
H683        H  0.27654071  0.95664912  0.51306422     0.14970
H684        H  0.25757540  0.10827989  0.51502646     0.14970
C685        C  0.33655852  0.11859974  0.47005691     0.36620
C686        C  0.19300909  0.94334582  0.55267878     0.36530
N687        N  0.36392179  0.15251183  0.45049182    -0.43720
N688        N  0.16243622  0.90651159  0.56696020    -0.43720
C689        C  0.02953248  0.72438125  0.52748895    -0.00130
C690        C  0.98650072  0.72451229  0.54355704    -0.12010
C691        C  0.97168351  0.75793902  0.52890532     0.02100
C692        C  0.00225053  0.79440832  0.49922277    -0.00220
C693        C  0.04650902  0.79535860  0.48431924    -0.11950
C694        C  0.05981366  0.76019462  0.49763071     0.01990
H695        H  0.96162368  0.69520360  0.56453078     0.14970
H696        H  0.07072165  0.82347258  0.46224946     0.14970
C697        C  0.10216301  0.75887859  0.47728522     0.36620
C698        C  0.92390249  0.75226214  0.54432865     0.36530
N699        N  0.13551500  0.75783841  0.45986973    -0.43720
N700        N  0.88576335  0.74677702  0.55790266    -0.43720
C701        C  0.01331161  0.22075486  0.50636434    -0.00130
C702        C  0.96336678  0.21216497  0.50218735    -0.12010
C703        C  0.95360366  0.24622861  0.48118197     0.02100
C704        C  0.99393813  0.28885846  0.46359944    -0.00220
C705        C  0.04280045  0.29497860  0.46475837    -0.11950
C706        C  0.05324915  0.26289342  0.48752204     0.01990
H707        H  0.93202240  0.17821360  0.51399425     0.14970
H708        H  0.07353776  0.32754479  0.45081827     0.14970
C709        C  0.10551800  0.27426551  0.49116940     0.36620
C710        C  0.90223217  0.23768977  0.47849032     0.36530
N711        N  0.14772958  0.28459159  0.49401525    -0.43720
N712        N  0.86113002  0.23093689  0.47568931    -0.43720
C713        C  0.00741561  0.03103843  0.70866355    -0.00130
C714        C  0.00738813  0.98893801  0.72552997    -0.12010
C715        C  0.99484550  0.97605954  0.76742010     0.02100
C716        C  0.98145555  0.00538680  0.79361073    -0.00220
C717        C  0.98133359  0.04735710  0.77690285    -0.11950
C718        C  0.99413279  0.06041506  0.73498066     0.01990
H719        H  0.01758694  0.96586046  0.70603797     0.14970
H720        H  0.97265220  0.07099024  0.79713824     0.14970
C721        C  0.99562691  0.10541255  0.72066772     0.36620
C722        C  0.99974149  0.93474073  0.78302719     0.36530
N723        N  0.99674739  0.14155070  0.70941792    -0.43720
N724        N  0.00409251  0.90176692  0.79530692    -0.43720
C725        C  0.00340379  0.98182700  0.29138042    -0.00130
C726        C  0.96709636  0.98559769  0.26683982    -0.12010
C727        C  0.97519270  0.99556243  0.22404312     0.02100
C728        C  0.02049526  0.00220966  0.20493450    -0.00220
C729        C  0.05733206  0.99958931  0.22923115    -0.11950
C730        C  0.04959591  0.99007310  0.27217714     0.01990
H731        H  0.93214954  0.98067016  0.28118302     0.14970
H732        H  0.09218493  0.00474016  0.21453139     0.14970
C733        C  0.09102314  0.99172789  0.29553507     0.36620
C734        C  0.93643609  0.99869834  0.20020947     0.36530
N735        N  0.12474147  0.99347228  0.31383563    -0.43720
N736        N  0.90557868  0.00135139  0.18097075    -0.43720
C737        C  0.78599360  0.80071809  0.98132704    -0.00130
C738        C  0.80019833  0.76908877  0.00151983    -0.12010
C739        C  0.76390401  0.72512252  0.01985070     0.02100
C740        C  0.71252504  0.71277592  0.01879248    -0.00220
C741        C  0.69828446  0.74489435  0.99947163    -0.11950
C742        C  0.73464905  0.78876590  0.98092651     0.01990
H743        H  0.84000269  0.78014909  0.00474484     0.14970
H744        H  0.65847035  0.73452603  0.99725615     0.14970
C745        C  0.71863339  0.82105962  0.96171725     0.36620
C746        C  0.78006150  0.69328573  0.03976299     0.36530
N747        N  0.70584140  0.84689824  0.94616352    -0.43720
N748        N  0.79300449  0.66787926  0.05589453    -0.43720
C749        C  0.29289648  0.29565715  0.98871347    -0.00130
C750        C  0.30531336  0.26375650  0.01061523    -0.12010
C751        C  0.26736997  0.21867495  0.02610661     0.02100
C752        C  0.21624282  0.20533391  0.02002276    -0.00220
C753        C  0.20382411  0.23712971  0.99788867    -0.11950
C754        C  0.24179105  0.28215598  0.98227729     0.01990
H755        H  0.34473114  0.27502810  0.01692054     0.14970
H756        H  0.16440821  0.22582750  0.99152323     0.14970
C757        C  0.22770752  0.31375446  0.95943146     0.36620
C758        C  0.28155001  0.18679098  0.04837998     0.36530
N759        N  0.21655854  0.33895564  0.94079359    -0.43720
N760        N  0.29283595  0.16131726  0.06645025    -0.43720
C761        C  0.71385610  0.01886950  0.06519510    -0.00130
C762        C  0.71824027  0.98022376  0.08416302    -0.12010
C763        C  0.76470587  0.97978940  0.08485160     0.02100
C764        C  0.80851748  0.01890628  0.06643002    -0.00220
C765        C  0.80394457  0.05714369  0.04696488    -0.11950
C766        C  0.75727412  0.05701547  0.04559826     0.01990
H767        H  0.68525125  0.95033651  0.09893145     0.14970
H768        H  0.83659168  0.08651507  0.03140578     0.14970
C769        C  0.75452609  0.09442167  0.02099721     0.36620
C770        C  0.76629847  0.93917170  0.10555852     0.36530
N771        N  0.75245547  0.12412472  0.00068558    -0.43720
N772        N  0.76740283  0.90651870  0.12214397    -0.43720
C773        C  0.29140767  0.99103313  0.94618607    -0.00130
C774        C  0.25187089  0.95050970  0.92524876    -0.12010
C775        C  0.20378130  0.94699457  0.92107156     0.02100
C776        C  0.19426112  0.98435272  0.93833804    -0.00220
C777        C  0.23370150  0.02471615  0.95935218    -0.11950
C778        C  0.28159459  0.02818868  0.96370039     0.01990
H779        H  0.25877876  0.92189675  0.91129657     0.14970
H780        H  0.22684237  0.05342012  0.97326521     0.14970
C781        C  0.31875194  0.06907725  0.98824411     0.36620
C782        C  0.16587329  0.90605707  0.89709211     0.36530
N783        N  0.34768801  0.10188875  0.00840553    -0.43720
N784        N  0.13562535  0.87334495  0.87764183    -0.43720
C785        C  0.98904575  0.78523688  0.04833117    -0.00130
C786        C  0.02226586  0.78122061  0.07640896    -0.12010
C787        C  0.02249427  0.73578669  0.08138778     0.02100
C788        C  0.98742016  0.69267471  0.05939422    -0.00220
C789        C  0.95323692  0.69656450  0.03234526    -0.11950
C790        C  0.95464533  0.74231620  0.02588357     0.01990
H791        H  0.04936006  0.81404111  0.09331519     0.14970
H792        H  0.92669000  0.66416749  0.01468219     0.14970
C793        C  0.92134938  0.74430226  0.99489757     0.36620
C794        C  0.05917698  0.73445909  0.10914955     0.36530
N795        N  0.89511904  0.74541195  0.96936400    -0.43720
N796        N  0.08878726  0.73346178  0.13121569    -0.43720
C797        C  0.01574413  0.21955097  0.94701098    -0.00130
C798        C  0.99285109  0.23756187  0.97624069    -0.12010
C799        C  0.99517955  0.28401758  0.97173282     0.02100
C800        C  0.01998019  0.31362940  0.93694116    -0.00220
C801        C  0.04344059  0.29654501  0.90789277    -0.11950
C802        C  0.04170561  0.25019651  0.91246421     0.01990
H803        H  0.97346983  0.21554241  0.00331804     0.14970
H804        H  0.06326124  0.31960619  0.88139618     0.14970
C805        C  0.06858150  0.23687988  0.88166562     0.36620
C806        C  0.97396484  0.30159647  0.00438478     0.36530
N807        N  0.09071499  0.22755295  0.85642701    -0.43720
N808        N  0.95716984  0.31569246  0.03069631    -0.43720
loop_ 
_geom_bond_atom_site_label_1 
_geom_bond_atom_site_label_2 
_geom_bond_distance 
_geom_bond_site_symmetry_2 
_ccdc_geom_bond_type 
C1           N19   1.355       .  A
C1           C38   1.473       .  S
C1          C797   1.505       .  S
N2           N19   1.325       .  A
N2           N24   1.318       .  A
N2          Co39   2.090   1_556  S
C3           N28   1.347       .  A
C3           C41   1.469       .  S
C3           H48   1.081       .  S
H4           C45   1.081       .  S
C5           N29   1.326       .  A
C5            C9   1.444   1_554  S
C5           H34   1.082       .  S
Co6          N24   2.100       .  S
Co6          N14   2.060       .  S
Co6          N46   2.050       .  S
Co6          N22   2.084       .  S
Co6         Cl50   2.414       .  S
N7           C45   1.346       .  A
N7           N14   1.320   1_665  A
N7           Co8   2.105       .  S
Co8          N11   2.105       .  S
Co8          N28   2.095   1_655  S
Co8          N15   2.079   1_556  S
Co8         Cl50   2.483   1_665  S
C9           N47   1.361       .  A
C9          C737   1.465       .  S
N10          N17   1.319   1_565  A
N10          N40   1.324       .  A
N10         Co43   2.090       .  S
N11          N29   1.317   1_556  A
N11          N47   1.328       .  A
N12          C41   1.348   1_545  A
N12          N22   1.323       .  A
H13          C38   1.078       .  S
N14          N35   1.319       .  A
N15          N33   1.321       .  A
N15          N20   1.324       .  A
C16          N20   1.348       .  A
C16          C44   1.470       .  S
C16         C785   1.489       .  S
N17          C32   1.346       .  A
N17         Co39   2.093   1_655  S
C18          N46   1.328       .  A
C18          C21   1.446   1_556  S
C18          H52   1.082       .  S
C21          N42   1.358       .  A
C21         C752   1.464       .  S
N22          N28   1.319   1_545  A
N23          C49   1.346       .  A
N23          N25   1.321   1_445  A
N23         Co39   2.110       .  S
N24          C38   1.345       .  A
N25          N53   1.320       .  A
N25         Co43   2.062       .  S
H26          C49   1.081       .  S
H27          C44   1.081       .  S
N29         Co43   2.046       .  S
N30          N42   1.326       .  A
N30          N46   1.317   1_554  A
N30         Co39   2.099       .  S
C31          N35   1.344   1_665  A
C31          C45   1.473       .  S
C31         C716   1.481   1_565  S
C32          C51   1.469       .  S
C32          H36   1.081       .  S
N33          C44   1.350       .  A
N33         Co43   2.117       .  S
C37          N53   1.345   1_445  A
C37          C49   1.469       .  S
C37         C728   1.475       .  S
Co39        Cl50   2.480   1_554  S
N40          C51   1.349   1_565  A
C41         C776   1.490       .  S
Co43        Cl50   2.416   1_664  S
C51         C764   1.493       .  S
C54          N72   1.350   1_565  A
C54          C91   1.468   1_655  S
C54         C725   1.490   1_655  S
N55          N72   1.324       .  A
N55          N77   1.318   1_645  A
N55         Co92   2.081       .  S
C56          N81   1.352   1_545  A
C56          C94   1.477       .  S
C56         H101   1.081       .  S
H57          C98   1.081       .  S
C58          N82   1.354       .  A
C58          C62   1.469       .  S
C58          H87   1.080       .  S
Co59         N77   2.081       .  S
Co59         N67   2.124       .  S
Co59         N99   2.124   1_565  S
Co59         N75   2.019   1_565  S
Co59       Cl103   2.445   1_565  S
N60          C98   1.314   1_455  A
N60          N67   1.316       .  A
N60         Co61   2.008       .  S
Co61         N64   2.115   1_455  S
Co61         N81   2.104       .  S
Co61         N68   2.074   1_565  S
Co61       Cl103   2.430   1_565  S
C62         N100   1.358       .  A
C62         C641   1.513       .  S
N63          N70   1.318       .  A
N63          N93   1.304   1_545  A
N63         Co96   2.016       .  S
N64          N82   1.315       .  A
N64         N100   1.333       .  A
N65          C94   1.327       .  A
N65          N75   1.304       .  A
H66          C91   1.080       .  S
N67          N88   1.332       .  A
N68          N86   1.317   1_455  A
N68          N73   1.321       .  A
C69          N73   1.350       .  A
C69          C97   1.468   1_455  S
C69         C713   1.490       .  S
N70          C85   1.354       .  A
N70         Co92   2.114       .  S
C71          N99   1.354       .  A
C71          C74   1.470       .  S
C71         H105   1.080       .  S
C74          N95   1.359       .  A
C74         C656   1.514       .  S
N75          N81   1.318   1_545  A
N76         C102   1.318       .  A
N76          N78   1.317   1_455  A
N76         Co92   2.028   1_455  S
N77          C91   1.341       .  A
N78         N106   1.329       .  A
N78         Co96   2.106       .  S
H79         C102   1.082       .  S
H80          C97   1.080       .  S
N82         Co96   2.115   1_565  S
N83          N95   1.333       .  A
N83          N99   1.317       .  A
N83         Co92   2.117   1_455  S
C84          N88   1.368   1_655  A
C84          C98   1.432       .  S
C84         C692   1.470   1_655  S
C85         C104   1.480   1_545  S
C85          H89   1.081       .  S
N86          C97   1.341       .  A
N86         Co96   2.075       .  S
C90         N106   1.361   1_455  A
C90         C102   1.435       .  S
C90         C701   1.460       .  S
Co92       Cl103   2.437   1_655  S
N93         C104   1.326       .  A
C94         C680   1.452       .  S
Co96       Cl103   2.450   1_655  S
C104        C668   1.453       .  S
C107        N125   1.348       .  A
C107        C144   1.459       .  S
C107        C632   1.470       .  S
N108        N125   1.321       .  A
N108        N130   1.319       .  A
N108       Co145   2.071   1_554  S
C109        N134   1.344       .  A
C109        C147   1.466       .  S
C109        H154   1.076       .  S
H110        C151   1.078       .  S
C111        N135   1.318       .  A
C111        C115   1.438   1_556  S
C111        H140   1.081       .  S
Co112       N130   2.085       .  S
Co112       N120   2.054       .  S
Co112       N152   2.042       .  S
Co112       N128   2.082       .  S
Co112      Cl156   2.402   1_554  S
N113        C151   1.349       .  A
N113        N120   1.315   1_655  A
N113       Co114   2.103       .  S
Co114       N117   2.114       .  S
Co114       N134   2.103       .  S
Co114       N121   2.058   1_554  S
Co114      Cl156   2.474   1_654  S
C115        N153   1.365       .  A
C115        C596   1.470       .  S
N116        N123   1.316   1_655  A
N116        N146   1.327       .  A
N116       Co149   2.096       .  S
N117        N135   1.317   1_554  A
N117        N153   1.330       .  A
N118        C147   1.351   1_455  A
N118        N128   1.327       .  A
H119        C144   1.081       .  S
N120        N141   1.317       .  A
N121        N139   1.319       .  A
N121        N126   1.317       .  A
C122        N126   1.342       .  A
C122        C150   1.475       .  S
C122        C620   1.490       .  S
N123        C138   1.346       .  A
N123       Co145   2.081       .  S
C124        N152   1.324       .  A
C124        C127   1.443   1_554  S
C124        H158   1.081       .  S
C127        N148   1.353       .  A
C127        C605   1.470       .  S
N128        N134   1.318   1_455  A
N129        C155   1.347       .  A
N129        N131   1.320   1_455  A
N129       Co145   2.111       .  S
N130        C144   1.339       .  A
N131        N159   1.321       .  A
N131       Co149   2.066       .  S
H132        C155   1.081       .  S
H133        C150   1.081       .  S
N135       Co149   2.027       .  S
N136        N148   1.325       .  A
N136        N152   1.319   1_556  A
N136       Co145   2.085       .  S
C137        N141   1.345   1_655  A
C137        C151   1.482       .  S
C137        C581   1.497   1_655  S
C138        C157   1.461       .  S
C138        H142   1.081       .  S
N139        C150   1.349       .  A
N139       Co149   2.105       .  S
C143        N159   1.345   1_455  A
C143        C155   1.471       .  S
C143        C572   1.476       .  S
Co145      Cl156   2.480       .  S
N146        C157   1.350   1_655  A
C147        C788   1.493       .  S
Co149      Cl156   2.410   1_655  S
C157        C800   1.485       .  S
C160        N178   1.333       .  A
C160        C197   1.463       .  S
C160        C704   1.447       .  S
N161        N178   1.309       .  A
N161        N183   1.320       .  A
N161       Co198   2.034       .  S
C162        N187   1.354       .  A
C162        C200   1.474       .  S
C162        H207   1.081       .  S
H163        C204   1.082       .  S
C164        N188   1.320       .  A
C164        C168   1.438       .  S
C164        H193   1.067       .  S
Co165       N183   2.088       .  S
Co165       N173   2.061   1_655  S
Co165       N205   2.028       .  S
Co165       N181   2.077       .  S
Co165      Cl209   2.411   1_655  S
N166        C204   1.346       .  A
N166        N173   1.319       .  A
N166       Co167   2.100       .  S
Co167       N170   2.122       .  S
Co167       N187   2.113   1_455  S
Co167       N174   2.003       .  S
Co167      Cl209   2.472       .  S
C168        N206   1.369       .  A
C168        C533   1.500       .  S
N169        N176   1.315       .  A
N169        N199   1.324       .  A
N169       Co202   2.071       .  S
N170        N188   1.315       .  A
N170        N206   1.331       .  A
N171        C200   1.348       .  A
N171        N181   1.324       .  A
H172        C197   1.081       .  S
N173        N194   1.320   1_455  A
N174        N192   1.319       .  A
N174        N179   1.307       .  A
C175        N179   1.327       .  A
C175        C203   1.469       .  S
C175        C689   1.449       .  S
N176        C191   1.355       .  A
N176       Co198   2.119   1_455  S
C177        N205   1.319       .  A
C177        C180   1.439       .  S
C177        H211   1.081       .  S
C180        N201   1.369       .  A
C180        C524   1.480       .  S
N181        N187   1.315       .  A
N182        C208   1.344       .  A
N182        N184   1.319   1_655  A
N182       Co198   2.099       .  S
N183        C197   1.348       .  A
N184        N212   1.322       .  A
N184       Co202   2.070       .  S
H185        C208   1.082       .  S
H186        C203   1.081       .  S
N188       Co202   2.048       .  S
N189        N201   1.331       .  A
N189        N205   1.317       .  A
N189       Co198   2.125       .  S
C190        N194   1.345   1_455  A
C190        C204   1.471       .  S
C190        C584   1.483       .  S
C191        C210   1.478       .  S
C191        H195   1.081       .  S
N192        C203   1.350       .  A
N192       Co202   2.111       .  S
C196        N212   1.347   1_655  A
C196        C208   1.468       .  S
C196        C569   1.481       .  S
Co198      Cl209   2.464   1_655  S
N199        C210   1.344       .  A
C200        C545   1.499       .  S
Co202      Cl209   2.402       .  S
C210        C557   1.499       .  S
C213        N231   1.353   1_565  A
C213        C250   1.463       .  S
C213        C773   1.492       .  S
N214        N231   1.327       .  A
N214        N236   1.316   1_545  A
N214       Co251   2.083       .  S
C215        N240   1.325       .  A
C215        C253   1.455   1_554  S
C215        H260   1.079       .  S
H216        C257   1.082       .  S
C217        N241   1.332       .  A
C217        C221   1.449   1_545  S
C217        H246   1.082       .  S
Co218       N236   2.092       .  S
Co218       N226   2.037   1_556  S
Co218       N258   2.050       .  S
Co218       N234   2.110       .  S
Co218      Cl262   2.395   1_566  S
N219        C257   1.349       .  A
N219        N226   1.318       .  A
N219       Co220   2.089       .  S
Co220       N223   2.088       .  S
Co220       N240   2.036       .  S
Co220       N227   2.087       .  S
Co220      Cl262   2.478   1_565  S
C221        N259   1.354       .  A
C221        C488   1.465   1_565  S
N222        N229   1.317       .  A
N222        N252   1.324       .  A
N222       Co255   2.076       .  S
N223        N241   1.317   1_565  A
N223        N259   1.326       .  A
N224        C253   1.360       .  A
N224        N234   1.329       .  A
H225        C250   1.081       .  S
N226        N247   1.306       .  A
N227        N245   1.317   1_565  A
N227        N232   1.328       .  A
C228        N232   1.353   1_545  A
C228        C256   1.465       .  S
C228        C761   1.495       .  S
N229        C244   1.330       .  A
N229       Co251   2.069   1_554  S
C230        N258   1.330       .  A
C230        C233   1.450   1_565  S
C230        H264   1.081       .  S
C233        N254   1.360       .  A
C233        C476   1.482       .  S
N234        N240   1.316   1_556  A
N235        C261   1.349       .  A
N235        N237   1.321   1_556  A
N235       Co251   2.099       .  S
N236        C250   1.344       .  A
N237        N265   1.310       .  A
N237       Co255   2.039       .  S
H238        C261   1.082       .  S
H239        C256   1.080       .  S
N241       Co255   2.058       .  S
N242        N254   1.330       .  A
N242        N258   1.318   1_545  A
N242       Co251   2.112       .  S
C243        N247   1.330       .  A
C243        C257   1.471       .  S
C243        C608   1.467       .  S
C244        C263   1.461       .  S
C244        H248   1.082   1_554  S
N245        C256   1.344       .  A
N245       Co255   2.093       .  S
C249        N265   1.332   1_556  A
C249        C261   1.467       .  S
C249        C593   1.454       .  S
Co251      Cl262   2.471   1_556  S
N252        C263   1.351       .  A
C253        C497   1.484       .  S
Co255      Cl262   2.409       .  S
C263        C509   1.466       .  S
C266        N284   1.352       .  A
C266        C303   1.475       .  S
C266        C464   1.512       .  S
N267        N284   1.330       .  A
N267        N289   1.317       .  A
N267       Co304   2.092       .  S
C268        N293   1.317       .  A
C268        C306   1.427       .  S
C268        H313   1.082       .  S
H269        C310   1.081       .  S
C270        N294   1.335       .  A
C270        C274   1.457       .  S
C270        H299   1.082   1_545  S
Co271       N289   2.128       .  S
Co271       N279   2.002       .  S
Co271       N311   2.068       .  S
Co271       N287   2.122       .  S
Co271      Cl315   2.435       .  S
N272        C310   1.357       .  A
N272        N279   1.320       .  A
N272       Co273   2.131       .  S
Co273       N276   2.076       .  S
Co273       N293   2.019   1_545  S
Co273       N280   2.109   1_545  S
Co273      Cl315   2.441       .  S
C274        N312   1.353       .  A
C274        C485   1.479       .  S
N275        N282   1.317       .  A
N275        N305   1.327       .  A
N275       Co308   2.094   1_545  S
N276        N294   1.316       .  A
N276        N312   1.323       .  A
N277        C306   1.365   1_545  A
N277        N287   1.332       .  A
H278        C303   1.080       .  S
N279        N300   1.305       .  A
N280        N298   1.313       .  A
N280        N285   1.332       .  A
C281        N285   1.357       .  A
C281        C309   1.472       .  S
C281        C452   1.517       .  S
N282        C297   1.320       .  A
N282       Co304   2.032       .  S
C283        N311   1.336       .  A
C283        C286   1.459   1_545  S
C283        H317   1.080       .  S
C286        N307   1.354       .  A
C286        C473   1.486       .  S
N287        N293   1.317   1_545  A
N288        C314   1.356       .  A
N288        N290   1.320       .  A
N288       Co304   2.120   1_565  S
N289        C303   1.355       .  A
N290        N318   1.304       .  A
N290       Co308   2.014       .  S
H291        C314   1.081       .  S
H292        C309   1.079       .  S
N294       Co308   2.062   1_545  S
N295        N307   1.325       .  A
N295        N311   1.319   1_565  A
N295       Co304   2.091   1_565  S
C296        N300   1.322       .  A
C296        C310   1.481       .  S
C296        C521   1.460       .  S
C297        C316   1.437       .  S
C297        H301   1.082       .  S
N298        C309   1.349       .  A
N298       Co308   2.101       .  S
C302        N318   1.324       .  A
C302        C314   1.480       .  S
C302        C536   1.467       .  S
Co304      Cl315   2.447       .  S
N305        C316   1.358       .  A
C306        C665   1.463       .  S
Co308      Cl315   2.429   1_565  S
C316        C677   1.454       .  S
C319        N337   1.345       .  A
C319        C356   1.465       .  S
C319        C629   1.472       .  S
N320        N337   1.320       .  A
N320        N342   1.317       .  A
N320       Co357   2.065       .  S
C321        N346   1.327       .  A
C321        C359   1.446   1_556  S
C321        H366   1.082       .  S
H322        C363   1.081       .  S
C323        N347   1.344       .  A
C323        C327   1.473       .  S
C323        H352   1.081       .  S
Co324       N342   2.082       .  S
Co324       N332   2.076   1_554  S
Co324       N364   2.098       .  S
Co324       N340   2.096       .  S
Co324      Cl368   2.467       .  S
N325        C363   1.341       .  A
N325        N332   1.316       .  A
N325       Co326   2.073       .  S
Co326       N329   2.058       .  S
Co326       N346   2.051       .  S
Co326       N333   2.068       .  S
Co326      Cl368   2.412   1_556  S
C327        N365   1.344       .  A
C327        C425   1.484       .  S
N328        N335   1.317   1_556  A
N328        N358   1.327       .  A
N328       Co361   2.094       .  S
N329        N347   1.318       .  A
N329        N365   1.317       .  A
N330        C359   1.358       .  A
N330        N340   1.327       .  A
H331        C356   1.081       .  S
N332        N353   1.319       .  A
N333        N351   1.316       .  A
N333        N338   1.322       .  A
C334        N338   1.347       .  A
C334        C362   1.462       .  S
C334        C617   1.468       .  S
N335        C350   1.328       .  A
N335       Co357   2.052       .  S
C336        N364   1.345       .  A
C336        C339   1.471       .  S
C336        H370   1.081       .  S
C339        N360   1.346       .  A
C339        C437   1.485       .  S
N340        N346   1.317   1_554  A
N341        C367   1.343       .  A
N341        N343   1.317       .  A
N341       Co357   2.076       .  S
N342        C356   1.342       .  A
N343        N371   1.315       .  A
N343       Co361   2.068   1_554  S
H344        C367   1.081       .  S
H345        C362   1.078       .  S
N347       Co361   2.092       .  S
N348        N360   1.319       .  A
N348        N364   1.319       .  A
N348       Co357   2.064       .  S
C349        N353   1.351       .  A
C349        C363   1.459       .  S
C349        C500   1.467       .  S
C350        C369   1.446   1_554  S
C350        H354   1.082       .  S
N351        C362   1.342       .  A
N351       Co361   2.085       .  S
C355        N371   1.347       .  A
C355        C367   1.465       .  S
C355        C512   1.476       .  S
Co357      Cl368   2.417       .  S
N358        C369   1.357       .  A
C359        C740   1.462       .  S
Co361      Cl368   2.466   1_556  S
C369        C749   1.462       .  S
C372        N390   1.351       .  A
C372        C409   1.468       .  S
C372        C560   1.495       .  S
N373        N390   1.328       .  A
N373        N395   1.325       .  A
N373       Co410   2.101       .  S
C374        N399   1.340       .  A
C374        C412   1.464       .  S
C374        H419   1.081       .  S
H375        C416   1.081       .  S
C376        N400   1.342       .  A
C376        C380   1.467       .  S
C376        H405   1.081       .  S
Co377       N395   2.118       .  S
Co377       N385   2.103       .  S
Co377       N417   2.093       .  S
Co377       N393   2.149       .  S
Co377      Cl421   2.484       .  S
N378        C416   1.350       .  A
N378        N385   1.321       .  A
N378       Co379   2.120       .  S
Co379       N382   2.079       .  S
Co379       N399   2.085       .  S
Co379       N386   2.097       .  S
Co379      Cl421   2.452       .  S
C380        N418   1.347       .  A
C380        C440   1.482       .  S
N381        N388   1.320       .  A
N381        N411   1.340       .  A
N381       Co414   2.151       .  S
N382        N400   1.324       .  A
N382        N418   1.322       .  A
N383        C412   1.369       .  A
N383        N393   1.339       .  A
H384        C409   1.081       .  S
N385        N406   1.329       .  A
N386        N404   1.324       .  A
N386        N391   1.328       .  A
C387        N391   1.351       .  A
C387        C415   1.470       .  S
C387        C548   1.499       .  S
N388        C403   1.342       .  A
N388       Co410   2.091       .  S
C389        N417   1.340       .  A
C389        C392   1.469       .  S
C389        H423   1.081       .  S
C392        N413   1.347       .  A
C392        C428   1.486       .  S
N393        N399   1.320       .  A
N394        C420   1.352       .  A
N394        N396   1.321       .  A
N394       Co410   2.123       .  S
N395        C409   1.347       .  A
N396        N424   1.329       .  A
N396       Co414   2.101       .  S
H397        C420   1.081       .  S
H398        C415   1.081       .  S
N400       Co414   2.098       .  S
N401        N413   1.321       .  A
N401        N417   1.323       .  A
N401       Co410   2.078       .  S
C402        N406   1.355       .  A
C402        C416   1.476       .  S
C402        C449   1.512       .  S
C403        C422   1.466       .  S
C403        H407   1.080       .  S
N404        C415   1.346       .  A
N404       Co414   2.118       .  S
C408        N424   1.354       .  A
C408        C420   1.474       .  S
C408        C461   1.504       .  S
Co410      Cl421   2.450       .  S
N411        C422   1.370       .  A
C412        C644   1.526       .  S
Co414      Cl421   2.482       .  S
C422        C653   1.531       .  S
C425        C426   1.404       .  A
C425        C430   1.416       .  A
C426        H431   1.083       .  S
C426        C427   1.402       .  A
C427        C428   1.417       .  A
C427        C434   1.444       .  S
C428        C429   1.403       .  A
C429        H432   1.083       .  S
C429        C430   1.397       .  A
C430        C433   1.445       .  S
C433        N435   1.157       .  T
C434        N436   1.157       .  T
C437        C438   1.409       .  A
C437        C442   1.409       .  A
C438        H443   1.084       .  S
C438        C439   1.399       .  A
C439        C440   1.408       .  A
C439        C446   1.444       .  S
C440        C441   1.409       .  A
C441        H444   1.084       .  S
C441        C442   1.403       .  A
C442        C445   1.443       .  S
C445        N447   1.157       .  T
C446        N448   1.157       .  T
C449        C450   1.407       .  A
C449        C454   1.419       .  A
C450        H455   1.085       .  S
C450        C451   1.413       .  A
C451        C452   1.422       .  A
C451        C458   1.443       .  S
C452        C453   1.410       .  A
C453        H456   1.085       .  S
C453        C454   1.415       .  A
C454        C457   1.442       .  S
C457        N459   1.157       .  T
C458        N460   1.158       .  T
C461        C462   1.407       .  A
C461        C466   1.413       .  A
C462        H467   1.084       .  S
C462        C463   1.416       .  A
C463        C464   1.417       .  A
C463        C470   1.442       .  S
C464        C465   1.412       .  A
C465        H468   1.084       .  S
C465        C466   1.414       .  A
C466        C469   1.444       .  S
C469        N471   1.157       .  T
C470        N472   1.157       .  T
C473        C474   1.399       .  A
C473        C478   1.422   1_565  A
C474        H479   1.085       .  S
C474        C475   1.399       .  A
C475        C476   1.418   1_565  A
C475        C482   1.445       .  S
C476        C477   1.398       .  A
C477        H480   1.085       .  S
C477        C478   1.403       .  A
C478        C481   1.443       .  S
C481        N483   1.158       .  T
C482        N484   1.158       .  T
C485        C486   1.405       .  A
C485        C490   1.417       .  A
C486        H491   1.084       .  S
C486        C487   1.398       .  A
C487        C488   1.406       .  A
C487        C494   1.444       .  S
C488        C489   1.400   1_545  A
C489        H492   1.085       .  S
C489        C490   1.399   1_565  A
C490        C493   1.444       .  S
C493        N495   1.158   1_545  T
C494        N496   1.157       .  T
C497        C498   1.409       .  A
C497        C502   1.419       .  A
C498        H503   1.084       .  S
C498        C499   1.405       .  A
C499        C500   1.405       .  A
C499        C506   1.442       .  S
C500        C501   1.397       .  A
C501        H504   1.086       .  S
C501        C502   1.390       .  A
C502        C505   1.445   1_556  S
C505        N507   1.158       .  T
C506        N508   1.157       .  T
C509        C510   1.398       .  A
C509        C514   1.405       .  A
C510        H515   1.085       .  S
C510        C511   1.384       .  A
C511        C512   1.412       .  A
C511        C518   1.446   1_554  S
C512        C513   1.411       .  A
C513        H516   1.082       .  S
C513        C514   1.406       .  A
C514        C517   1.443       .  S
C517        N519   1.157       .  T
C518        N520   1.157       .  T
C521        C522   1.392       .  A
C521        C526   1.421       .  A
C522        H527   1.086       .  S
C522        C523   1.396       .  A
C523        C524   1.422       .  A
C523        C530   1.441       .  S
C524        C525   1.397       .  A
C525        H528   1.085       .  S
C525        C526   1.397       .  A
C526        C529   1.445       .  S
C529        N531   1.157       .  T
C530        N532   1.156       .  T
C533        C534   1.397       .  A
C533        C538   1.442       .  A
C534        H539   1.084       .  S
C534        C535   1.395       .  A
C535        C536   1.418       .  A
C535        C542   1.447       .  S
C536        C537   1.383       .  A
C537        H540   1.086       .  S
C537        C538   1.398       .  A
C538        C541   1.442       .  S
C541        N543   1.158       .  T
C542        N544   1.157       .  T
C545        C546   1.408       .  A
C545        C550   1.413       .  A
C546        H551   1.084       .  S
C546        C547   1.407       .  A
C547        C548   1.413       .  A
C547        C554   1.445       .  S
C548        C549   1.410       .  A
C549        H552   1.084       .  S
C549        C550   1.413       .  A
C550        C553   1.442       .  S
C553        N555   1.157       .  T
C554        N556   1.158       .  T
C557        C558   1.408       .  A
C557        C562   1.412       .  A
C558        H563   1.084       .  S
C558        C559   1.409       .  A
C559        C560   1.413       .  A
C559        C566   1.443       .  S
C560        C561   1.406       .  A
C561        H564   1.084       .  S
C561        C562   1.409       .  A
C562        C565   1.437       .  S
C565        N567   1.155       .  T
C566        N568   1.157       .  T
C569        C570   1.405   1_655  A
C569        C574   1.411       .  A
C570        H575   1.084       .  S
C570        C571   1.403       .  A
C571        C572   1.411       .  A
C571        C578   1.445       .  S
C572        C573   1.402   1_455  A
C573        H576   1.084       .  S
C573        C574   1.404       .  A
C574        C577   1.444       .  S
C577        N579   1.157       .  T
C578        N580   1.157       .  T
C581        C582   1.415       .  A
C581        C586   1.414   1_455  A
C582        H587   1.084       .  S
C582        C583   1.400       .  A
C583        C584   1.403       .  A
C583        C590   1.444       .  S
C584        C585   1.408   1_455  A
C585        H588   1.085       .  S
C585        C586   1.404       .  A
C586        C589   1.442       .  S
C589        N591   1.158       .  T
C590        N592   1.157       .  T
C593        C594   1.392       .  A
C593        C598   1.412   1_556  A
C594        H599   1.085       .  S
C594        C595   1.393       .  A
C595        C596   1.418   1_556  A
C595        C602   1.444       .  S
C596        C597   1.398       .  A
C597        H600   1.084       .  S
C597        C598   1.396       .  A
C598        C601   1.439       .  S
C601        N603   1.155       .  T
C602        N604   1.157       .  T
C605        C606   1.390       .  A
C605        C610   1.424   1_556  A
C606        H611   1.085       .  S
C606        C607   1.391       .  A
C607        C608   1.424   1_556  A
C607        C614   1.447       .  S
C608        C609   1.390       .  A
C609        H612   1.085       .  S
C609        C610   1.395       .  A
C610        C613   1.444       .  S
C613        N615   1.157       .  T
C614        N616   1.158       .  T
C617        C618   1.394       .  A
C617        C622   1.407       .  A
C618        H623   1.086       .  S
C618        C619   1.394       .  A
C619        C620   1.423       .  A
C619        C626   1.444   1_556  S
C620        C621   1.408       .  A
C621        H624   1.083       .  S
C621        C622   1.406       .  A
C622        C625   1.443       .  S
C625        N627   1.157       .  T
C626        N628   1.157       .  T
C629        C630   1.405       .  A
C629        C634   1.409       .  A
C630        H635   1.085       .  S
C630        C631   1.396       .  A
C631        C632   1.409       .  A
C631        C638   1.445       .  S
C632        C633   1.404       .  A
C633        H636   1.084       .  S
C633        C634   1.399       .  A
C634        C637   1.443       .  S
C637        N639   1.157       .  T
C638        N640   1.157   1_554  T
C641        C642   1.411       .  A
C641        C646   1.412       .  A
C642        H647   1.084       .  S
C642        C643   1.423       .  A
C643        C644   1.421       .  A
C643        C650   1.442       .  S
C644        C645   1.414       .  A
C645        H648   1.081       .  S
C645        C646   1.410       .  A
C646        C649   1.444       .  S
C649        N651   1.157       .  T
C650        N652   1.157       .  T
C653        C654   1.417       .  A
C653        C658   1.421       .  A
C654        H659   1.081       .  S
C654        C655   1.414       .  A
C655        C656   1.411       .  A
C655        C662   1.445       .  S
C656        C657   1.411       .  A
C657        H660   1.084       .  S
C657        C658   1.424       .  A
C658        C661   1.442       .  S
C661        N663   1.157       .  T
C662        N664   1.157       .  T
C665        C666   1.398       .  A
C665        C670   1.420   1_565  A
C666        H671   1.086       .  S
C666        C667   1.396       .  A
C667        C668   1.414       .  A
C667        C674   1.445       .  S
C668        C669   1.395   1_565  A
C669        H672   1.086       .  S
C669        C670   1.397       .  A
C670        C673   1.440       .  S
C673        N675   1.155       .  T
C674        N676   1.157       .  T
C677        C678   1.405   1_545  A
C677        C682   1.401       .  A
C678        H683   1.085       .  S
C678        C679   1.398       .  A
C679        C680   1.409   1_565  A
C679        C686   1.444       .  S
C680        C681   1.407       .  A
C681        H684   1.086       .  S
C681        C682   1.394       .  A
C682        C685   1.444       .  S
C685        N687   1.157       .  T
C686        N688   1.157       .  T
C689        C690   1.389   1_455  A
C689        C694   1.415       .  A
C690        H695   1.086       .  S
C690        C691   1.391       .  A
C691        C692   1.423   1_655  A
C691        C698   1.444       .  S
C692        C693   1.396       .  A
C693        H696   1.085       .  S
C693        C694   1.395       .  A
C694        C697   1.441       .  S
C697        N699   1.155       .  T
C698        N700   1.157       .  T
C701        C702   1.404   1_455  A
C701        C706   1.412       .  A
C702        H707   1.085       .  S
C702        C703   1.400       .  A
C703        C704   1.408       .  A
C703        C710   1.442       .  S
C704        C705   1.391   1_655  A
C705        H708   1.081       .  S
C705        C706   1.389       .  A
C706        C709   1.444       .  S
C709        N711   1.157       .  T
C710        N712   1.156       .  T
C713        C714   1.409   1_545  A
C713        C718   1.413   1_455  A
C714        H719   1.084       .  S
C714        C715   1.400   1_455  A
C715        C716   1.411   1_565  A
C715        C722   1.444       .  S
C716        C717   1.406       .  A
C717        H720   1.085       .  S
C717        C718   1.403       .  A
C718        C721   1.443       .  S
C721        N723   1.157       .  T
C722        N724   1.157   1_655  T
C725        C726   1.405   1_455  A
C725        C730   1.421       .  A
C726        H731   1.085       .  S
C726        C727   1.402       .  A
C727        C728   1.410   1_665  A
C727        C734   1.445       .  S
C728        C729   1.398   1_545  A
C729        H732   1.085   1_565  S
C729        C730   1.404       .  A
C730        C733   1.443       .  S
C733        N735   1.158       .  T
C734        N736   1.157   1_565  T
C737        C738   1.405   1_556  A
C737        C742   1.406       .  A
C738        H743   1.083       .  S
C738        C739   1.397       .  A
C739        C740   1.405       .  A
C739        C746   1.445       .  S
C740        C741   1.405   1_554  A
C741        H744   1.085       .  S
C741        C742   1.398       .  A
C742        C745   1.444       .  S
C745        N747   1.157       .  T
C746        N748   1.157       .  T
C749        C750   1.405   1_556  A
C749        C754   1.405       .  A
C750        H755   1.085       .  S
C750        C751   1.397       .  A
C751        C752   1.405       .  A
C751        C758   1.444       .  S
C752        C753   1.406   1_554  A
C753        H756   1.085       .  S
C753        C754   1.398       .  A
C754        C757   1.444       .  S
C757        N759   1.157       .  T
C758        N760   1.157       .  T
C761        C762   1.404   1_545  A
C761        C766   1.415       .  A
C762        H767   1.085       .  S
C762        C763   1.406       .  A
C763        C764   1.417   1_565  A
C763        C770   1.444       .  S
C764        C765   1.403       .  A
C765        H768   1.085       .  S
C765        C766   1.404       .  A
C766        C769   1.439       .  S
C769        N771   1.156       .  T
C770        N772   1.157       .  T
C773        C774   1.408       .  A
C773        C778   1.415   1_565  A
C774        H779   1.084       .  S
C774        C775   1.407       .  A
C775        C776   1.412       .  A
C775        C782   1.443       .  S
C776        C777   1.405   1_565  A
C777        H780   1.085       .  S
C777        C778   1.402       .  A
C778        C781   1.443       .  S
C781        N783   1.157   1_556  T
C782        N784   1.157       .  T
C785        C786   1.404   1_655  A
C785        C790   1.414       .  A
C786        H791   1.084       .  S
C786        C787   1.410       .  A
C787        C788   1.416   1_455  A
C787        C794   1.443       .  S
C788        C789   1.404       .  A
C789        H792   1.084       .  S
C789        C790   1.404       .  A
C790        C793   1.443   1_554  S
C793        N795   1.157       .  T
C794        N796   1.157       .  T
C797        C798   1.410   1_455  A
C797        C802   1.423       .  A
C798        H803   1.085   1_556  S
C798        C799   1.404       .  A
C799        C800   1.409   1_655  A
C799        C806   1.444   1_556  S
C800        C801   1.400       .  A
C801        H804   1.085       .  S
C801        C802   1.409       .  A
C802        C805   1.441       .  S
C805        N807   1.158       .  T
C806        N808   1.157       .  T
