geometry optimzed in LAMMPS
_audit_creation_date              2020-11-30 
_audit_creation_method            'lammps2cif' 
_symmetry_space_group_name_H-M    'P1' 
_symmetry_Int_Tables_number       1 
_symmetry_cell_setting            triclinic 
loop_ 
_symmetry_equiv_pos_as_xyz 
  x,y,z 
_cell_length_a                    45.33918118 
_cell_length_b                    45.378904731073135 
_cell_length_c                    30.903653683800975 
_cell_angle_alpha                 89.5832812080699 
_cell_angle_beta                  91.22233425801257 
_cell_angle_gamma                 91.5191663744733 
loop_ 
_atom_site_label 
_atom_site_type_symbol 
_atom_site_fract_x 
_atom_site_fract_y 
_atom_site_fract_z 
_atom_site_charge 
O1          O  0.15785058  0.02732701  0.29588139    -0.73000
O2          O  0.15167791  0.46066179  0.20890291    -0.74000
O3          O  0.15593668  0.45941946  0.30094896    -0.62600
O4          O  0.15457435  0.02815280  0.20334517    -0.71000
O5          O  0.20327987  0.02650975  0.20302710    -0.70600
O6          O  0.20455554  0.45724039  0.29700556    -0.61800
O7          O  0.20055044  0.46046711  0.20551946    -0.74400
O8          O  0.20667357  0.02327735  0.29489869    -0.73100
Cu9        Cu  0.15182846  0.99669814  0.25137670     1.04600
Cu10       Cu  0.20606164  0.49011114  0.25187943     1.04300
C11         C  0.18356263  0.03400183  0.31054019     0.93200
C12         C  0.17507934  0.45066489  0.19335445     0.92300
C13         C  0.18040744  0.44869722  0.31444605     0.84500
C14         C  0.17929376  0.03724648  0.18797910     0.90700
C15         C  0.19788937  0.10732984  0.46073769     0.86400
C16         C  0.17802038  0.13371883  0.46334064    -0.53800
C17         C  0.18170447  0.15358693  0.99141897     0.09300
C18         C  0.20760054  0.14366661  0.02156183     0.20300
C19         C  0.22922212  0.11963879  0.46115381    -0.54600
C20         C  0.23445722  0.14184639  0.99049021     0.09400
C21         C  0.19429768  0.09197818  0.50534788    -0.54100
C22         C  0.19869926  0.11126379  0.03426025     0.10000
H23         H  0.15853502  0.13618532  0.44290928     0.14500
H24         H  0.21158368  0.15889672  0.04882233     0.00300
H25         H  0.24544122  0.11160234  0.43936569     0.14800
H26         H  0.18712014  0.07148878  0.99994476     0.14600
C27         C  0.19506486  0.37100272  0.05743461     0.86400
C28         C  0.18058002  0.34085269  0.05285082    -0.53800
C29         C  0.18786209  0.32953747  0.51200918     0.09300
C30         C  0.20998830  0.34623697  0.48212422     0.20300
C31         C  0.22831316  0.36646553  0.05631955    -0.54600
C32         C  0.23685502  0.35411879  0.51227600     0.09400
C33         C  0.18849466  0.38722201  0.01375932    -0.54100
C34         C  0.19493023  0.37598347  0.47107291     0.10000
H35         H  0.16276695  0.33346133  0.07363735     0.14500
H36         H  0.21627368  0.33269896  0.45457182     0.00300
H37         H  0.24367675  0.37771151  0.07844743     0.14800
H38         H  0.17910160  0.41224087  0.50854170     0.14600
O39         O  0.28940372  0.04202648  0.28779788    -0.73000
O40         O  0.29093044  0.47396018  0.20114466    -0.74000
O41         O  0.28450129  0.47921221  0.29233687    -0.62600
O42         O  0.29342438  0.03603539  0.19716816    -0.71000
O43         O  0.34238657  0.03841301  0.20423872    -0.70600
O44         O  0.33351326  0.47885101  0.29829977    -0.61800
O45         O  0.33975761  0.47633421  0.20690118    -0.74400
O46         O  0.33794331  0.04075455  0.29525090    -0.73100
Cu47       Cu  0.28667171  0.50756736  0.24441469     1.04600
Cu48       Cu  0.33895073  0.50865990  0.25197030     1.04300
C49         C  0.31338891  0.05177413  0.30577942     0.93200
C50         C  0.31619444  0.46526089  0.18935101     0.92300
C51         C  0.30801288  0.47015231  0.31048800     0.84500
C52         C  0.31851070  0.04612245  0.18551228     0.90700
C53         C  0.30763839  0.12430251  0.04025827     0.86400
C54         C  0.32281144  0.15484615  0.03890143    -0.53800
C55         C  0.31585684  0.16972757  0.50278680     0.09300
C56         C  0.29283606  0.15259529  0.47316867     0.20300
C57         C  0.27505919  0.13085240  0.03823464    -0.54600
C58         C  0.26822287  0.14221677  0.50503064     0.09400
C59         C  0.31488450  0.11031154  0.99696759    -0.54100
C60         C  0.30907856  0.12422170  0.46011960     0.10000
H61         H  0.34066932  0.16189534  0.06050777     0.14500
H62         H  0.28447126  0.16569738  0.44525190     0.00300
H63         H  0.25961860  0.12052845  0.05990001     0.14800
H64         H  0.33039426  0.08858169  0.49320060     0.14600
C65         C  0.30132500  0.39051358  0.45639596     0.86400
C66         C  0.32063108  0.36326979  0.45614969    -0.53800
C67         C  0.31775855  0.34483494  0.99251011     0.09300
C68         C  0.29741219  0.35727198  0.02811855     0.20300
C69         C  0.27042127  0.37793016  0.46201210    -0.54600
C70         C  0.26711131  0.36071320  0.00427432     0.09400
C71         C  0.30948497  0.40594064  0.49930516    -0.54100
C72         C  0.30951107  0.38954762  0.03658805     0.10000
H73         H  0.33723895  0.35864471  0.43260778     0.14500
H74         H  0.29564086  0.34257766  0.05650063     0.00300
H75         H  0.25208237  0.38476792  0.44199789     0.14800
H76         H  0.31774731  0.42805909  0.99628433     0.14600
O77         O  0.46424433  0.16415428  0.29116808    -0.73000
O78         O  0.02952897  0.15866740  0.21187154    -0.74000
O79         O  0.02772062  0.16103493  0.30387062    -0.62600
O80         O  0.46584453  0.16328075  0.19889255    -0.71000
O81         O  0.46825719  0.21205060  0.19957658    -0.70600
O82         O  0.03000890  0.20984558  0.30181386    -0.61800
O83         O  0.03196281  0.20768278  0.20985429    -0.74400
O84         O  0.46721465  0.21316001  0.29030101    -0.73100
Cu85       Cu  0.49623774  0.16055448  0.24939782     1.04600
Cu86       Cu  0.49905083  0.21286822  0.24816676     1.04300
C87         C  0.45586432  0.18906164  0.30428510     0.93200
C88         C  0.04020897  0.18267235  0.19672216     0.92300
C89         C  0.03831774  0.18554969  0.31884090     0.84500
C90         C  0.45726286  0.18814056  0.18369293     0.90700
C91         C  0.11698489  0.18382623  0.05077733     0.86400
C92         C  0.14352444  0.16490210  0.04295008    -0.53800
C93         C  0.16163364  0.17207582  0.51067726     0.09300
C94         C  0.14780575  0.19690821  0.48183420     0.20300
C95         C  0.12953303  0.21545835  0.04872899    -0.54600
C96         C  0.14824057  0.22426261  0.51214862     0.07400
C97         C  0.09743006  0.17972753  0.00951808    -0.54100
C98         C  0.11453095  0.18817548  0.47614845     0.10000
H99         H  0.15018671  0.14636357  0.06240307     0.14500
H100        H  0.15922536  0.20081813  0.45079559     0.00300
H101        H  0.12498377  0.23139809  0.07316659     0.14800
H102        H  0.07903561  0.17523147  0.51723017     0.14600
C103        C  0.37878444  0.20564456  0.44481033     0.86400
C104        C  0.34983553  0.18868855  0.44957105    -0.53800
C105        C  0.33660102  0.19394425  0.98822633     0.09300
C106        C  0.35374958  0.21676460  0.01776042     0.20300
C107        C  0.37130230  0.23783396  0.44964230    -0.54600
C108        C  0.35928293  0.24426045  0.98748876     0.09400
C109        C  0.39743138  0.19909734  0.48639448    -0.54100
C110        C  0.38461464  0.20317052  0.02551417     0.10000
H111        H  0.34263820  0.17175024  0.42675455     0.14500
H112        H  0.34208408  0.22185783  0.04789664     0.00300
H113        H  0.37910446  0.25482622  0.42772619     0.14800
H114        H  0.42070207  0.19124508  0.98622321     0.14600
O115        O  0.03362254  0.28382302  0.20349634    -0.73000
O116        O  0.47544505  0.28448560  0.29597256    -0.74000
O117        O  0.47334542  0.28668823  0.20327600    -0.62600
O118        O  0.03556101  0.28266374  0.29475058    -0.71000
O119        O  0.03767695  0.33169408  0.29509892    -0.70600
O120        O  0.47473756  0.33567461  0.20519974    -0.61800
O121        O  0.47694292  0.33330411  0.29720807    -0.74400
O122        O  0.03575140  0.33261890  0.20296064    -0.73100
Cu123      Cu  0.50528769  0.28366461  0.24763872     1.04600
Cu124      Cu  0.50693453  0.33598749  0.24819097     1.04300
C125        C  0.04430811  0.30798949  0.18797396     0.93200
C126        C  0.46717375  0.30860126  0.31253027     0.92300
C127        C  0.46476223  0.31160946  0.18923580     0.84500
C128        C  0.04664043  0.30693828  0.30876342     0.90700
C129        C  0.12499164  0.29276738  0.45189806     0.86400
C130        C  0.15312432  0.31084543  0.45806245    -0.53800
C131        C  0.16645605  0.30418065  0.00038110     0.09300
C132        C  0.14843088  0.28175015  0.02873278     0.20300
C133        C  0.13349198  0.26088351  0.45859143    -0.54600
C134        C  0.14256634  0.25471021  0.99826110     0.09400
C135        C  0.10583752  0.29901211  0.49165682    -0.54100
C136        C  0.11774140  0.29601425  0.03393896     0.10000
H137        H  0.15989824  0.32788079  0.43519287     0.14500
H138        H  0.15973092  0.27613507  0.05978688     0.00300
H139        H  0.12618635  0.24341728  0.43697987     0.14800
H140        H  0.08240092  0.30893516  0.99121412     0.14600
C141        C  0.38858357  0.31469377  0.03945376     0.86400
C142        C  0.36032765  0.33179731  0.03718288    -0.53800
C143        C  0.34311121  0.32624394  0.50167521     0.09300
C144        C  0.35655735  0.30287572  0.47091724     0.20300
C145        C  0.37740141  0.28251884  0.03685007    -0.54600
C146        C  0.35992536  0.27546143  0.50116413     0.09400
C147        C  0.40444658  0.32095603  0.99679071    -0.54100
C148        C  0.38892817  0.31369739  0.46208286     0.10000
H149        H  0.35333937  0.34691395  0.06137815     0.14500
H150        H  0.34326751  0.29842681  0.44097029     0.00300
H151        H  0.38473519  0.26588508  0.05936667     0.14800
H152        H  0.42722478  0.32657517  0.49959595     0.14600
C153        C  0.42334999  0.32811140  0.35014932    -0.12400
C154        C  0.44626663  0.30798652  0.34978770     0.04700
C155        C  0.44863387  0.28791880  0.38512166    -0.07600
C156        C  0.42881468  0.28939965  0.41990838    -0.08400
C157        C  0.40617837  0.31017358  0.42076381    -0.02900
C158        C  0.40354148  0.32926541  0.38467979     0.03900
N159        N  0.38162888  0.35099863  0.38279713     0.66400
H160        H  0.42093279  0.34349901  0.32339218     0.15300
H161        H  0.43176112  0.27478466  0.44747105     0.15000
N162        N  0.47194414  0.26709202  0.38768271     0.74100
O163        O  0.38573226  0.37423508  0.40455442    -0.39400
O164        O  0.36401498  0.35105295  0.35061948    -0.39300
O165        O  0.49816900  0.27522014  0.37997705    -0.40000
O166        O  0.46707333  0.24167812  0.40327918    -0.40100
C167        C  0.42439417  0.33547248  0.14903392    -0.12400
C168        C  0.44496277  0.31300839  0.15192464     0.04700
C169        C  0.45012442  0.29565288  0.11571477    -0.07600
C170        C  0.43263995  0.29864124  0.07915589    -0.08400
C171        C  0.40970005  0.31874674  0.07736741    -0.02900
C172        C  0.40757679  0.33957494  0.11109446     0.03900
N173        N  0.39245294  0.36675961  0.10548537     0.66400
H174        H  0.42273182  0.35090755  0.17542012     0.15300
H175        H  0.43636030  0.28414539  0.05213741     0.15000
N176        N  0.47404461  0.27595922  0.11442884     0.74100
O177        O  0.38002050  0.37824268  0.13716683    -0.39400
O178        O  0.39642596  0.38201202  0.07165806    -0.39300
O179        O  0.47075937  0.25061467  0.13076726    -0.40000
O180        O  0.49398934  0.28054634  0.08711823    -0.40100
C181        C  0.09113309  0.28493879  0.33921456    -0.12400
C182        C  0.06972434  0.30639557  0.34157270     0.04700
C183        C  0.07088722  0.32725804  0.37493059    -0.07600
C184        C  0.09175459  0.32442910  0.40787644    -0.08400
C185        C  0.11019889  0.30004746  0.40928497    -0.02900
C186        C  0.11256373  0.28250554  0.37183241     0.03900
N187        N  0.13719421  0.26384051  0.36518284     0.66400
H188        H  0.09146609  0.27048571  0.31149842     0.15300
H189        H  0.09173903  0.33994796  0.43435477     0.15000
N190        N  0.04916659  0.34940111  0.37825314     0.74100
O191        O  0.13387098  0.24047374  0.34347440    -0.39400
O192        O  0.16293861  0.27246421  0.37630928    -0.39300
O193        O  0.02356094  0.34238258  0.39063826    -0.40000
O194        O  0.05657462  0.37626361  0.37424816    -0.40100
C195        C  0.06334226  0.32682471  0.11662236    -0.12400
C196        C  0.06617748  0.30723340  0.15175089     0.04700
C197        C  0.08915782  0.28658082  0.15058023    -0.07600
C198        C  0.10677204  0.28464414  0.11333446    -0.08400
C199        C  0.10216188  0.30237705  0.07630205    -0.02900
C200        C  0.08127623  0.32520777  0.07978848     0.03900
N201        N  0.07897466  0.34800107  0.04747585     0.66400
H202        H  0.04686656  0.34364914  0.11776865     0.15300
H203        H  0.12445242  0.26927723  0.11392637     0.15000
N204        N  0.09550101  0.26792124  0.18724662     0.74100
O205        O  0.05411228  0.35818892  0.03726033    -0.39400
O206        O  0.09973602  0.35899891  0.52496848    -0.39300
O207        O  0.10567316  0.24261320  0.18178523    -0.40000
O208        O  0.09454673  0.27799613  0.22513845    -0.40100
C209        C  0.43745153  0.17014327  0.11189386    -0.12400
C210        C  0.43518471  0.18958946  0.14660592     0.04700
C211        C  0.41288765  0.21102366  0.14391732    -0.07600
C212        C  0.39541349  0.21383546  0.10554422    -0.08400
C213        C  0.39963024  0.19618762  0.06902518    -0.02900
C214        C  0.41970463  0.17269787  0.07402482     0.03900
N215        N  0.42076937  0.14984707  0.04241729     0.66400
H216        H  0.45331205  0.15272248  0.11415329     0.15300
H217        H  0.37828102  0.22987803  0.10469113     0.15000
N218        N  0.40713089  0.22960461  0.18010038     0.74100
O219        O  0.44514752  0.13913589  0.03264291    -0.39400
O220        O  0.39712618  0.13689597  0.03021195    -0.39300
O221        O  0.39772536  0.25526804  0.17390920    -0.40000
O222        O  0.40778168  0.21919611  0.21808136    -0.40100
C223        C  0.41161826  0.21122268  0.33249112    -0.12400
C224        C  0.43340763  0.19011725  0.33680834     0.04700
C225        C  0.43349642  0.17049142  0.37218816    -0.07600
C226        C  0.41314836  0.17406970  0.40446547    -0.08400
C227        C  0.39384145  0.19781759  0.40337945    -0.02900
C228        C  0.39075898  0.21437397  0.36451131     0.03900
N229        N  0.36623363  0.23322407  0.35617397     0.66400
H230        H  0.41059511  0.22495809  0.30372528     0.15300
H231        H  0.41423806  0.15949730  0.43223566     0.15000
N232        N  0.45571606  0.14876329  0.37803714     0.74100
O233        O  0.36955246  0.25636341  0.33365941    -0.39400
O234        O  0.34053079  0.22498070  0.36665064    -0.39300
O235        O  0.48268041  0.15645354  0.37777819    -0.40000
O236        O  0.44853818  0.12308579  0.39062411    -0.40100
C237        C  0.05420904  0.20630556  0.39056541    -0.12400
C238        C  0.05940943  0.18638989  0.35723169     0.04700
C239        C  0.08388516  0.16768856  0.36221312    -0.07600
C240        C  0.10196361  0.16921326  0.40036808    -0.08400
C241        C  0.09610894  0.18853164  0.43444870    -0.02900
C242        C  0.07151218  0.20712726  0.42899371     0.03900
N243        N  0.06338637  0.22712583  0.46202636     0.66400
H244        H  0.03559078  0.22074531  0.38754246     0.15300
H245        H  0.12052807  0.15489616  0.40353508     0.15000
N246        N  0.09121757  0.14763099  0.32858529     0.74100
O247        O  0.04851348  0.21734831  0.49328899    -0.39400
O248        O  0.06210924  0.25417890  0.45276472    -0.39300
O249        O  0.09032801  0.15577425  0.28943516    -0.40000
O250        O  0.10137348  0.12272173  0.33814169    -0.40100
C251        C  0.08362811  0.16206151  0.16152160    -0.12400
C252        C  0.06040848  0.18172636  0.16111028     0.04700
C253        C  0.05558984  0.19996434  0.12528728    -0.07600
C254        C  0.07450494  0.19948974  0.09125276    -0.08400
C255        C  0.09844236  0.18043731  0.09078866    -0.02900
C256        C  0.10302195  0.16136363  0.12685283     0.03900
N257        N  0.12712553  0.14190481  0.13020485     0.66400
H258        H  0.08711208  0.14770998  0.18925517     0.15300
H259        H  0.07034247  0.21448963  0.06447067     0.15000
N260        N  0.03066737  0.21833569  0.12203529     0.74100
O261        O  0.15193841  0.15176238  0.14358662    -0.39400
O262        O  0.12189860  0.11446218  0.13090300    -0.39300
O263        O  0.03430151  0.24559576  0.12830562    -0.40000
O264        O  0.00748997  0.20877236  0.10299084    -0.40100
C265        C  0.30528392  0.41528410  0.15575063    -0.12400
C266        C  0.31831626  0.44368373  0.15318414     0.04700
C267        C  0.33322480  0.45155017  0.11515599    -0.07600
C268        C  0.33221911  0.43256214  0.07940707    -0.08400
C269        C  0.31666232  0.40503887  0.07977066    -0.02900
C270        C  0.30589604  0.39540514  0.12052366     0.03900
N271        N  0.29879957  0.36504227  0.12857764     0.66400
H272        H  0.29570775  0.40804829  0.18597433     0.15300
H273        H  0.34400469  0.43990419  0.05114128     0.15000
N274        N  0.34825118  0.47957634  0.11135897     0.74100
O275        O  0.31917221  0.34664686  0.12776107    -0.39400
O276        O  0.27548923  0.35810230  0.14802727    -0.39300
O277        O  0.37252092  0.48412040  0.13126333    -0.40000
O278        O  0.33975990  0.49791367  0.08315122    -0.40100
C279        C  0.32065094  0.40562666  0.38265048    -0.12400
C280        C  0.30276438  0.41149143  0.41791822     0.04700
C281        C  0.28549878  0.43719188  0.41609585    -0.07600
C282        C  0.28688406  0.45565227  0.37994659    -0.08400
C283        C  0.30568425  0.44958459  0.34617313    -0.02900
C284        C  0.32280487  0.42450183  0.34752514     0.03900
N285        N  0.34171395  0.41747217  0.31272587     0.66400
H286        H  0.33290528  0.38549007  0.38067397     0.15300
H287        H  0.27382110  0.47528874  0.37873292     0.15000
N288        N  0.26659297  0.44503143  0.45049275     0.74100
O289        O  0.36922555  0.41625115  0.31931329    -0.39400
O290        O  0.33083005  0.41104908  0.27595904    -0.39300
O291        O  0.27535038  0.46461079  0.47693424    -0.40000
O292        O  0.23928712  0.43923278  0.44686070    -0.40100
C293        C  0.29109049  0.11383514  0.38296054    -0.12400
C294        C  0.31346007  0.11213497  0.41507556     0.04700
C295        C  0.33820818  0.09475007  0.40592773    -0.07600
C296        C  0.33739611  0.07595341  0.36999485    -0.08400
C297        C  0.31323346  0.07461784  0.34087874    -0.02900
C298        C  0.29044412  0.09508290  0.34647291     0.03900
N299        N  0.26674500  0.09762688  0.31543483     0.66400
H300        H  0.27324158  0.12883857  0.38689954     0.15300
H301        H  0.35601398  0.06199142  0.36499430     0.15000
N302        N  0.36478682  0.09656171  0.43203690     0.74100
O303        O  0.24751171  0.07715543  0.31197450    -0.39400
O304        O  0.26154365  0.12244157  0.29865107    -0.39300
O305        O  0.38084087  0.07441079  0.43690411    -0.40000
O306        O  0.37377861  0.12108269  0.44680094    -0.40100
C307        C  0.30154479  0.05703272  0.11298794    -0.12400
C308        C  0.31924454  0.06544045  0.14826038     0.04700
C309        C  0.33596896  0.09187618  0.14740950    -0.07600
C310        C  0.33328898  0.11063011  0.11163676    -0.08400
C311        C  0.31402154  0.10310029  0.07684161    -0.02900
C312        C  0.29893580  0.07516829  0.07724028     0.03900
N313        N  0.28001625  0.06508950  0.04227865     0.66400
H314        H  0.28926330  0.03617555  0.11334780     0.15300
H315        H  0.34550127  0.13132230  0.11260361     0.15000
N316        N  0.35405017  0.10083843  0.18370043     0.74100
O317        O  0.25242913  0.06541126  0.04673834    -0.39400
O318        O  0.29022594  0.04793004  0.01469356    -0.39300
O319        O  0.38165960  0.10340924  0.17995706    -0.40000
O320        O  0.34222768  0.10927760  0.21791494    -0.40100
C321        C  0.16557912  0.41077773  0.42333884    -0.12400
C322        C  0.18779244  0.38945888  0.42641659     0.04700
C323        C  0.20382864  0.38452162  0.38800066    -0.07600
C324        C  0.20139580  0.40425005  0.35242877    -0.08400
C325        C  0.18119190  0.42722825  0.35170099    -0.02900
C326        C  0.16223214  0.42946136  0.38708057     0.03900
N327        N  0.14052954  0.45179039  0.38809573     0.66400
H328        H  0.15089626  0.41381921  0.44997536     0.15300
H329        H  0.21475409  0.40092085  0.32430176     0.15000
N330        N  0.22079395  0.35871406  0.38246451     0.74100
O331        O  0.11379762  0.44466935  0.39386999    -0.39400
O332        O  0.14848071  0.47865635  0.38874734    -0.39300
O333        O  0.20722256  0.33420651  0.37846437    -0.40000
O334        O  0.24651641  0.36136902  0.36778372    -0.40100
C335        C  0.19190237  0.40289210  0.17103573    -0.12400
C336        C  0.17340317  0.42648294  0.16275219     0.04700
C337        C  0.15601268  0.42707778  0.12455448    -0.07600
C338        C  0.16162441  0.40673749  0.09245287    -0.08400
C339        C  0.18441333  0.38639663  0.09740066    -0.02900
C340        C  0.19636043  0.38145805  0.13976473     0.03900
N341        N  0.21213284  0.35533073  0.15240502     0.66400
H342        H  0.20308265  0.40145385  0.20231295     0.15300
H343        H  0.14824154  0.40733606  0.06310038     0.15000
N344        N  0.13416786  0.44893019  0.11635630     0.74100
O345        O  0.22379591  0.35364795  0.18981199    -0.39400
O346        O  0.20968365  0.33199010  0.13061276    -0.39300
O347        O  0.13055600  0.45905149  0.07849439    -0.40000
O348        O  0.11456279  0.45322959  0.14381026    -0.40100
C349        C  0.18339280  0.08282119  0.34351653    -0.12400
C350        C  0.18648825  0.05253668  0.34806223     0.04700
C351        C  0.19264869  0.03984944  0.38853143    -0.07600
C352        C  0.19554920  0.05780064  0.42452915    -0.08400
C353        C  0.19232848  0.08851343  0.42104230    -0.02900
C354        C  0.18750694  0.10124003  0.37918680     0.03900
N355        N  0.18783395  0.13254007  0.37169562     0.66400
H356        H  0.17933086  0.09227033  0.31168285     0.15300
H357        H  0.20195404  0.04734483  0.45462963     0.15000
N358        N  0.19606172  0.00869628  0.39351124     0.74100
O359        O  0.21048472  0.14798064  0.38168723    -0.39400
O360        O  0.16815045  0.14370564  0.34769005    -0.39300
O361        O  0.21839209  0.99662720  0.37852643    -0.40000
O362        O  0.17915779  0.99410616  0.41807665    -0.40100
C363        C  0.20338046  0.08170161  0.15263400    -0.12400
C364        C  0.18068990  0.05989688  0.15207640     0.04700
C365        C  0.16134894  0.05900606  0.11559462    -0.07600
C366        C  0.16681424  0.07762419  0.07976688    -0.08400
C367        C  0.19086621  0.09810004  0.07852638    -0.02900
C368        C  0.20789103  0.10153645  0.11754257     0.03900
N369        N  0.22902468  0.12522130  0.12353496     0.66400
H370        H  0.21755891  0.08367901  0.18120087     0.15300
H371        H  0.15195532  0.07569703  0.05195709     0.15000
N372        N  0.13690586  0.03835030  0.11296487     0.74100
O373        O  0.22011378  0.15130955  0.12378498    -0.39400
O374        O  0.25376786  0.11998346  0.14108275    -0.39300
O375        O  0.11634208  0.03981289  0.13968201    -0.40000
O376        O  0.13254410  0.02361468  0.07883860    -0.40100
O377        O  0.16145516  0.02291790  0.79829141    -0.73000
O378        O  0.16338868  0.45912764  0.71193532    -0.74000
O379        O  0.16290616  0.45666433  0.80448750    -0.62600
O380        O  0.15806136  0.02376610  0.70665806    -0.71000
O381        O  0.20663174  0.02117102  0.70550552    -0.70600
O382        O  0.21176609  0.45736765  0.80480848    -0.61800
O383        O  0.21241833  0.46318801  0.71228676    -0.74400
O384        O  0.21020383  0.01852224  0.79691254    -0.73100
Cu385      Cu  0.15525150  0.99220771  0.75406443     1.04600
Cu386      Cu  0.21308814  0.49138474  0.76034284     1.04300
C387        C  0.18730215  0.02989725  0.81214177     0.93200
C388        C  0.18821415  0.45278559  0.69642889     0.92300
C389        C  0.18736888  0.44723521  0.82000800     0.84500
C390        C  0.18277167  0.03289060  0.69150291     0.90700
C391        C  0.19802145  0.11058637  0.95412343     0.86400
C392        C  0.17675362  0.13595007  0.95662738    -0.53800
C393        C  0.18435202  0.15169010  0.49718339     0.09300
C394        C  0.21036435  0.14110705  0.52670792     0.20300
C395        C  0.22863765  0.12445199  0.95599004    -0.54600
C396        C  0.23635982  0.13762977  0.49457778     0.09400
C397        C  0.19420534  0.09447980  0.99796926    -0.54100
C398        C  0.20066475  0.10917209  0.54076335     0.10000
H399        H  0.15710340  0.13753324  0.93628846     0.14500
H400        H  0.21539872  0.15651373  0.55350938     0.00300
H401        H  0.24556841  0.11745420  0.93470493     0.14800
H402        H  0.18547870  0.06971320  0.50920546     0.14600
C403        C  0.19664759  0.37469037  0.55146906     0.86400
C404        C  0.18076519  0.34482876  0.54766681    -0.53800
C405        C  0.18836488  0.32602009  0.01735946     0.09300
C406        C  0.21106665  0.34342493  0.98888683     0.20300
C407        C  0.22924174  0.36817402  0.54843694    -0.54600
C408        C  0.23730735  0.35252081  0.02028993     0.09400
C409        C  0.18854643  0.39053771  0.50847332    -0.54100
C410        C  0.19576321  0.37280483  0.97670715     0.10000
H411        H  0.16142534  0.33842306  0.56549772     0.14500
H412        H  0.21851856  0.33005195  0.96182920     0.00300
H413        H  0.24559912  0.37867764  0.56950787     0.14800
H414        H  0.18082307  0.40959432  0.01261805     0.14600
O415        O  0.29438899  0.04375186  0.78961908    -0.73000
O416        O  0.28397834  0.47329048  0.70260564    -0.74000
O417        O  0.27780350  0.47770756  0.79391929    -0.62600
O418        O  0.29992182  0.03866602  0.69940216    -0.71000
O419        O  0.34887932  0.03998789  0.70728330    -0.70600
O420        O  0.32675704  0.47545799  0.79916021    -0.61800
O421        O  0.33283187  0.47479982  0.70777047    -0.74400
O422        O  0.34291967  0.04220709  0.79849232    -0.73100
Cu423      Cu  0.28072597  0.50666712  0.74683741     1.04600
Cu424      Cu  0.33294759  0.50625494  0.75431900     1.04300
C425        C  0.31821086  0.05335494  0.80814008     0.93200
C426        C  0.30900769  0.46431731  0.69015811     0.92300
C427        C  0.30104387  0.46728378  0.81104748     0.84500
C428        C  0.32532383  0.04802486  0.68798366     0.90700
C429        C  0.31193280  0.12236752  0.53947289     0.86400
C430        C  0.32518950  0.15370258  0.53773869    -0.53800
C431        C  0.31514474  0.17113314  0.00326817     0.09300
C432        C  0.29198510  0.15500998  0.97261700     0.20300
C433        C  0.27892681  0.12679888  0.53894310    -0.54600
C434        C  0.26600543  0.14618822  0.00321945     0.09400
C435        C  0.31889924  0.10910698  0.49556481    -0.54100
C436        C  0.30712325  0.12576539  0.96085684     0.10000
H437        H  0.34324673  0.16154603  0.55831328     0.14500
H438        H  0.28510351  0.16836550  0.94408770     0.00300
H439        H  0.26454351  0.11509345  0.56059487     0.14800
H440        H  0.32551570  0.08923946  0.99548281     0.14600
C441        C  0.29941179  0.38897041  0.95770085     0.86400
C442        C  0.31815582  0.36144145  0.95595644    -0.53800
C443        C  0.31833072  0.34585129  0.49149973     0.09300
C444        C  0.29584692  0.35706979  0.52477116     0.20300
C445        C  0.26895869  0.37742976  0.96818209    -0.54600
C446        C  0.26700677  0.36038330  0.49714042     0.09400
C447        C  0.31071393  0.40516682  0.99842387    -0.54100
C448        C  0.30653377  0.38924360  0.53629096     0.10000
H449        H  0.33373804  0.35711721  0.93111889     0.14500
H450        H  0.29289338  0.34178808  0.55225477     0.00300
H451        H  0.24997576  0.38387117  0.94962321     0.14800
H452        H  0.31609817  0.42904693  0.49963739     0.14600
O453        O  0.46329454  0.16218002  0.78996092    -0.73000
O454        O  0.02916434  0.16240617  0.70740378    -0.74000
O455        O  0.02641156  0.16383662  0.79863565    -0.62600
O456        O  0.46493594  0.16204988  0.69747403    -0.71000
O457        O  0.46661696  0.21079163  0.69939975    -0.70600
O458        O  0.02700115  0.21271405  0.79809128    -0.61800
O459        O  0.03011473  0.21144756  0.70645118    -0.74400
O460        O  0.46625631  0.21118250  0.79002697    -0.73100
Cu461      Cu  0.49536327  0.15925960  0.74793420     1.04600
Cu462      Cu  0.49773272  0.21156282  0.74740818     1.04300
C463        C  0.45492622  0.18696903  0.80360143     0.93200
C464        C  0.03975495  0.18685720  0.69372255     0.92300
C465        C  0.03597568  0.18846778  0.81438966     0.84500
C466        C  0.45599577  0.18693690  0.68289185     0.90700
C467        C  0.12227714  0.18738421  0.55543184     0.86400
C468        C  0.14765838  0.16689470  0.54859666    -0.53800
C469        C  0.15762689  0.17199645  0.00574508     0.09300
C470        C  0.14326094  0.19718120  0.97876904     0.20300
C471        C  0.13614467  0.21819475  0.55076601    -0.54600
C472        C  0.14239026  0.22318455  0.01114689     0.07400
C473        C  0.10198642  0.18239176  0.51492199    -0.54100
C474        C  0.11044436  0.18745711  0.97177251     0.10000
H475        H  0.15316755  0.14840690  0.56914632     0.14500
H476        H  0.15479469  0.20269575  0.94829212     0.00300
H477        H  0.13272356  0.23502223  0.57432151     0.14800
H478        H  0.07453147  0.17215001  0.01052770     0.14600
C479        C  0.37949277  0.20504312  0.94560787     0.86400
C480        C  0.35031144  0.18863115  0.95062160    -0.53800
C481        C  0.33597403  0.19357898  0.48721581     0.09300
C482        C  0.35274604  0.21654469  0.51695714     0.20300
C483        C  0.37255133  0.23741662  0.95020274    -0.54600
C484        C  0.35793273  0.24427254  0.48700504     0.09400
C485        C  0.39806739  0.19829641  0.98716683    -0.54100
C486        C  0.38379631  0.20339045  0.52471101     0.10000
H487        H  0.34264091  0.17192492  0.92774597     0.14500
H488        H  0.34091446  0.22132335  0.54707183     0.00300
H489        H  0.38034841  0.25417541  0.92793467     0.14800
H490        H  0.42021414  0.19248483  0.48552709     0.14600
O491        O  0.03736469  0.28576310  0.70230458    -0.73000
O492        O  0.47695301  0.28484292  0.79655047    -0.74000
O493        O  0.47503789  0.28542477  0.70413702    -0.62600
O494        O  0.04007177  0.28717906  0.79349069    -0.71000
O495        O  0.04032790  0.33615234  0.79178670    -0.70600
O496        O  0.47563853  0.33439147  0.70436758    -0.61800
O497        O  0.47744094  0.33365056  0.79617112    -0.74400
O498        O  0.03752796  0.33454992  0.69938705    -0.73100
Cu499      Cu  0.50716870  0.28355921  0.74855335     1.04600
Cu500      Cu  0.50779851  0.33586908  0.74753684     1.04300
C501        C  0.04696427  0.30994624  0.68551300     0.93200
C502        C  0.46783368  0.30902917  0.81192962     0.92300
C503        C  0.46576892  0.30993781  0.68955036     0.84500
C504        C  0.05043401  0.31207964  0.80633681     0.90700
C505        C  0.12371438  0.29462366  0.95452637     0.86400
C506        C  0.15316462  0.31032480  0.96184747    -0.53800
C507        C  0.16694444  0.30646551  0.49666193     0.09300
C508        C  0.15097463  0.28341923  0.52626353     0.20300
C509        C  0.12958006  0.26200875  0.95999062    -0.54600
C510        C  0.14712811  0.25535109  0.49706097     0.09400
C511        C  0.10489290  0.30158983  0.99437210    -0.54100
C512        C  0.11932464  0.29551930  0.53123261     0.10000
H513        H  0.16125316  0.32727805  0.93980948     0.14500
H514        H  0.16291595  0.27953266  0.55740895     0.00300
H515        H  0.12140541  0.24557182  0.93719331     0.14800
H516        H  0.08291472  0.30499249  0.48834665     0.14600
C517        C  0.38716800  0.31370551  0.54156454     0.86400
C518        C  0.35917851  0.33130507  0.53841530    -0.53800
C519        C  0.34352490  0.32615903  0.00131945     0.09300
C520        C  0.35675468  0.30273281  0.97039092     0.20300
C521        C  0.37553976  0.28178641  0.53782384    -0.54600
C522        C  0.36114562  0.27562551  0.00096976     0.09400
C523        C  0.40396476  0.32009147  0.49948285    -0.54100
C524        C  0.38877874  0.31406103  0.96016203     0.10000
H525        H  0.35165233  0.34632197  0.56240340     0.14500
H526        H  0.34300790  0.29781842  0.94103155     0.00300
H527        H  0.38220599  0.26487770  0.56028913     0.14800
H528        H  0.42761334  0.32773377  0.99592065     0.14600
C529        C  0.42304199  0.32846353  0.84839891    -0.12400
C530        C  0.44630546  0.30849913  0.84853789     0.04700
C531        C  0.44840755  0.28835229  0.88379605    -0.07600
C532        C  0.42835098  0.28970767  0.91814859    -0.08400
C533        C  0.40555712  0.31026900  0.91865288    -0.02900
C534        C  0.40281602  0.32935903  0.88260829     0.03900
N535        N  0.38011617  0.35043701  0.88048782     0.66400
H536        H  0.42064544  0.34377683  0.82156074     0.15300
H537        H  0.43130645  0.27519444  0.94583169     0.15000
N538        N  0.47165912  0.26746726  0.88675723     0.74100
O539        O  0.38310012  0.37396316  0.90184718    -0.39400
O540        O  0.36098775  0.34868620  0.85031010    -0.39300
O541        O  0.49804180  0.27564165  0.88030103    -0.40000
O542        O  0.46648956  0.24194965  0.90179903    -0.40100
C543        C  0.42311404  0.33196629  0.65261117    -0.12400
C544        C  0.44476750  0.31050719  0.65349235     0.04700
C545        C  0.44938089  0.29363928  0.61656397    -0.07600
C546        C  0.43100371  0.29679641  0.58091530    -0.08400
C547        C  0.40782483  0.31668136  0.58036861    -0.02900
C548        C  0.40524051  0.33612697  0.61575648     0.03900
N549        N  0.38796370  0.36205802  0.61340980     0.66400
H550        H  0.42127231  0.34669814  0.67983017     0.15300
H551        H  0.43448396  0.28278246  0.55326888     0.15000
N552        N  0.47350007  0.27426065  0.61351157     0.74100
O553        O  0.37254106  0.36904077  0.64510460    -0.39400
O554        O  0.39275484  0.38084792  0.58387288    -0.39300
O555        O  0.47310213  0.25077551  0.63542643    -0.40000
O556        O  0.49000009  0.27633744  0.58117076    -0.40100
C557        C  0.09531703  0.29142173  0.83790648    -0.12400
C558        C  0.07367755  0.31271163  0.83929376     0.04700
C559        C  0.07295102  0.33221972  0.87432576    -0.07600
C560        C  0.09137052  0.32748030  0.90997255    -0.08400
C561        C  0.11008648  0.30328053  0.91147122    -0.02900
C562        C  0.11475240  0.28749290  0.87282858     0.03900
N563        N  0.13897326  0.26798425  0.86815181     0.66400
H564        H  0.09693048  0.27769557  0.80957650     0.15300
H565        H  0.08995429  0.34210603  0.93733522     0.15000
N566        N  0.05175362  0.35497561  0.87609695     0.74100
O567        O  0.13583233  0.24504350  0.84544765    -0.39400
O568        O  0.16443498  0.27543622  0.88211376    -0.39300
O569        O  0.03217634  0.35384190  0.90453556    -0.40000
O570        O  0.05564718  0.37839064  0.85444723    -0.40100
C571        C  0.06413731  0.32685431  0.61227674    -0.12400
C572        C  0.06855286  0.30910321  0.64906763     0.04700
C573        C  0.09265284  0.28976781  0.64924968    -0.07600
C574        C  0.10996511  0.28712222  0.61186167    -0.08400
C575        C  0.10385217  0.30279820  0.57331334    -0.02900
C576        C  0.08168892  0.32453952  0.57518927     0.03900
N577        N  0.07765788  0.34565676  0.54087023     0.66400
H578        H  0.04668795  0.34271299  0.61227370     0.15300
H579        H  0.12858844  0.27292792  0.61361412     0.15000
N580        N  0.10046718  0.27332012  0.68751477     0.74100
O581        O  0.05204822  0.35359664  0.53000788    -0.39400
O582        O  0.10200215  0.36041638  0.03292591    -0.39300
O583        O  0.11096885  0.24794880  0.68440199    -0.40000
O584        O  0.10036516  0.28547773  0.72411398    -0.40100
C585        C  0.43646608  0.16951488  0.61059118    -0.12400
C586        C  0.43397917  0.18855233  0.64576440     0.04700
C587        C  0.41157568  0.20986381  0.64347327    -0.07600
C588        C  0.39412989  0.21293630  0.60515091    -0.08400
C589        C  0.39866593  0.19587639  0.56812913    -0.02900
C590        C  0.41886110  0.17242491  0.57260864     0.03900
N591        N  0.42044264  0.15013422  0.54014148     0.66400
H592        H  0.45246051  0.15220727  0.61253204     0.15300
H593        H  0.37675966  0.22870776  0.60477491     0.15000
N594        N  0.40564787  0.22802869  0.68003895     0.74100
O595        O  0.44493108  0.13931027  0.53121162    -0.39400
O596        O  0.39698746  0.13805153  0.52541403    -0.39300
O597        O  0.39638193  0.25379547  0.67437111    -0.40000
O598        O  0.40605223  0.21717820  0.71776059    -0.40100
C599        C  0.41099482  0.20933775  0.83230732    -0.12400
C600        C  0.43250625  0.18792912  0.83622674     0.04700
C601        C  0.43267945  0.16842574  0.87172884    -0.07600
C602        C  0.41305618  0.17270116  0.90481864    -0.08400
C603        C  0.39415302  0.19679872  0.90401392    -0.02900
C604        C  0.39067968  0.21303212  0.86490694     0.03900
N605        N  0.36636070  0.23221374  0.85699620     0.66400
H606        H  0.40982236  0.22297736  0.80345253     0.15300
H607        H  0.41431159  0.15826722  0.93273220     0.15000
N608        N  0.45429161  0.14605192  0.87674910     0.74100
O609        O  0.36977547  0.25522592  0.83422960    -0.39400
O610        O  0.34065871  0.22432095  0.86795384    -0.39300
O611        O  0.48142959  0.15306069  0.87692928    -0.40000
O612        O  0.44638729  0.12027135  0.88792006    -0.40100
C613        C  0.05055611  0.20751462  0.88755349    -0.12400
C614        C  0.05677161  0.18920707  0.85271020     0.04700
C615        C  0.08177072  0.17122576  0.85621268    -0.07600
C616        C  0.09954976  0.17164494  0.89448458    -0.08400
C617        C  0.09270839  0.18924803  0.92999302    -0.02900
C618        C  0.06764374  0.20725263  0.92607665     0.03900
N619        N  0.05874273  0.22516893  0.96113178     0.66400
H620        H  0.03140139  0.22129966  0.88561876     0.15300
H621        H  0.11851310  0.15775114  0.89669561     0.15000
N622        N  0.08967681  0.15286145  0.82096108     0.74100
O623        O  0.04076620  0.21442345  0.98797205    -0.39400
O624        O  0.06125374  0.25281856  0.95757488    -0.39300
O625        O  0.09090976  0.16329035  0.78303895    -0.40000
O626        O  0.09693374  0.12656797  0.82795474    -0.40100
C627        C  0.08633268  0.16829236  0.66486559    -0.12400
C628        C  0.06217891  0.18685648  0.66099713     0.04700
C629        C  0.05955319  0.20590440  0.62560583    -0.07600
C630        C  0.08058743  0.20611258  0.59439221    -0.08400
C631        C  0.10408284  0.18654107  0.59583932    -0.02900
C632        C  0.10802060  0.16851238  0.63309348     0.03900
N633        N  0.13449226  0.15280324  0.64160237     0.66400
H634        H  0.08885990  0.15446484  0.69335939     0.15300
H635        H  0.07767960  0.22102314  0.56715693     0.15000
N636        N  0.03406946  0.22313745  0.61848337     0.74100
O637        O  0.15882192  0.16692254  0.64450321    -0.39400
O638        O  0.13290386  0.12664762  0.65571277    -0.39300
O639        O  0.03729490  0.25053804  0.61252931    -0.40000
O640        O  0.01019915  0.21030261  0.60686990    -0.40100
C641        C  0.29447977  0.41601083  0.65364805    -0.12400
C642        C  0.31073597  0.44282778  0.65362054     0.04700
C643        C  0.32975108  0.44847659  0.61892259    -0.07600
C644        C  0.33001287  0.42920854  0.58353955    -0.08400
C645        C  0.31159303  0.40357279  0.58088718    -0.02900
C646        C  0.29611501  0.39558958  0.61916172     0.03900
N647        N  0.28509584  0.36612933  0.62634306     0.66400
H648        H  0.28165982  0.41019793  0.68178455     0.15300
H649        H  0.34448985  0.43505669  0.55727713     0.15000
N650        N  0.34777937  0.47478699  0.61780119     0.74100
O651        O  0.30325525  0.34551340  0.62751007    -0.39400
O652        O  0.26061197  0.36208752  0.64449695    -0.39300
O653        O  0.37540155  0.47331364  0.62267831    -0.40000
O654        O  0.33652450  0.49894967  0.60699547    -0.40100
C655        C  0.31028682  0.39988850  0.87885667    -0.12400
C656        C  0.29824111  0.40882725  0.91813549     0.04700
C657        C  0.28387431  0.43633688  0.91938658    -0.07600
C658        C  0.28429057  0.45470747  0.88323203    -0.08400
C659        C  0.29822246  0.44619460  0.84583508    -0.02900
C660        C  0.31074174  0.41851600  0.84305908     0.03900
N661        N  0.32320807  0.40881410  0.80363329     0.66400
H662        H  0.31846559  0.37815081  0.87460458     0.15300
H663        H  0.27442795  0.47612834  0.88472092     0.15000
N664        N  0.26949346  0.44645599  0.95720091     0.74100
O665        O  0.35038885  0.40372520  0.80215136    -0.39400
O666        O  0.30687162  0.40441426  0.77061218    -0.39300
O667        O  0.27927691  0.46951878  0.97574426    -0.40000
O668        O  0.24352996  0.43745887  0.96475026    -0.40100
C669        C  0.29284642  0.11540816  0.88198274    -0.12400
C670        C  0.31356715  0.11366428  0.91642195     0.04700
C671        C  0.33876426  0.09621924  0.91002135    -0.07600
C672        C  0.33992170  0.07755325  0.87408184    -0.08400
C673        C  0.31727295  0.07639147  0.84260943    -0.02900
C674        C  0.29425131  0.09671739  0.84570260     0.03900
N675        N  0.27232039  0.09890569  0.81206551     0.66400
H676        H  0.27498026  0.13061954  0.88347644     0.15300
H677        H  0.35869134  0.06348480  0.87106299     0.15000
N678        N  0.36386452  0.09789494  0.93905385     0.74100
O679        O  0.24801339  0.08498924  0.81524763    -0.39400
O680        O  0.27602428  0.11705849  0.78141907    -0.39300
O681        O  0.37924231  0.07553444  0.94639640    -0.40000
O682        O  0.37253202  0.12251003  0.95380797    -0.40100
C683        C  0.31137615  0.05563636  0.61361461    -0.12400
C684        C  0.32676101  0.06641673  0.64982470     0.04700
C685        C  0.34125003  0.09420210  0.64887008    -0.07600
C686        C  0.33817922  0.11163123  0.61158973    -0.08400
C687        C  0.32046076  0.10188408  0.57614319    -0.02900
C688        C  0.30800700  0.07280437  0.57697343     0.03900
N689        N  0.29052126  0.06069605  0.54183596     0.66400
H690        H  0.30090653  0.03384493  0.61430173     0.15300
H691        H  0.34817850  0.13340529  0.61231181     0.15000
N692        N  0.35730647  0.10583807  0.68591689     0.74100
O693        O  0.26274886  0.06072794  0.54388947    -0.39400
O694        O  0.30213092  0.04270307  0.51677270    -0.39300
O695        O  0.37951627  0.12277554  0.68071386    -0.40000
O696        O  0.34754625  0.10203349  0.72356447    -0.40100
C697        C  0.16906542  0.40895985  0.92755155    -0.12400
C698        C  0.19042333  0.38687123  0.93167837     0.04700
C699        C  0.20720645  0.38161460  0.89398040    -0.07600
C700        C  0.20676388  0.40195328  0.85881245    -0.08400
C701        C  0.18730773  0.42558162  0.85724170    -0.02900
C702        C  0.16731150  0.42790854  0.89136799     0.03900
N703        N  0.14583615  0.45044471  0.89098614     0.66400
H704        H  0.15362667  0.41224591  0.95317732     0.15300
H705        H  0.22081250  0.39845369  0.83149140     0.15000
N706        N  0.22318800  0.35510126  0.88896750     0.74100
O707        O  0.11870667  0.44346196  0.88971669    -0.39400
O708        O  0.15380672  0.47692913  0.89744731    -0.39300
O709        O  0.20882664  0.33099518  0.88554776    -0.40000
O710        O  0.24918463  0.35660323  0.87510622    -0.40100
C711        C  0.17327643  0.40687034  0.66070097    -0.12400
C712        C  0.18894048  0.43370184  0.65923777     0.04700
C713        C  0.20632382  0.44116635  0.62350262    -0.07600
C714        C  0.20716250  0.42155548  0.58942962    -0.08400
C715        C  0.19202409  0.39402233  0.59046131    -0.02900
C716        C  0.17551814  0.38634055  0.62770727     0.03900
N717        N  0.16337478  0.35745743  0.63543237     0.66400
H718        H  0.16084547  0.40095918  0.68923180     0.15300
H719        H  0.22028673  0.42774463  0.56170178     0.15000
N720        N  0.22286990  0.46857286  0.62086256     0.74100
O721        O  0.13636487  0.35427156  0.64395076    -0.39400
O722        O  0.18051777  0.33654380  0.64347651    -0.39300
O723        O  0.24823354  0.46927522  0.60472320    -0.40000
O724        O  0.21075935  0.49253946  0.62906412    -0.40100
C725        C  0.18065531  0.07919246  0.84112210    -0.12400
C726        C  0.19069982  0.05063355  0.84706217     0.04700
C727        C  0.20426194  0.04214552  0.88610327    -0.07600
C728        C  0.20635933  0.06210214  0.91972187    -0.08400
C729        C  0.19485025  0.09054275  0.91542154    -0.02900
C730        C  0.18422314  0.09995118  0.87407942     0.03900
N731        N  0.17987105  0.13044210  0.86347581     0.66400
H732        H  0.17181162  0.08578400  0.80975085     0.15300
H733        H  0.21762966  0.05526865  0.94921296     0.15000
N734        N  0.21521536  0.01307737  0.89246859     0.74100
O735        O  0.19987513  0.14941909  0.87252335    -0.39400
O736        O  0.15930685  0.13745624  0.83754994    -0.39300
O737        O  0.23852154  0.00578221  0.87421353    -0.40000
O738        O  0.20438203  0.99649738  0.92133683    -0.40100
C739        C  0.20993475  0.07492880  0.65495796    -0.12400
C740        C  0.18427921  0.05689356  0.65730703     0.04700
C741        C  0.16154328  0.06180467  0.62599893    -0.07600
C742        C  0.16701598  0.08069979  0.59035658    -0.08400
C743        C  0.19376227  0.09698950  0.58583768    -0.02900
C744        C  0.21416325  0.09603110  0.62148741     0.03900
N745        N  0.23818139  0.11697450  0.62634265     0.66400
H746        H  0.22659353  0.07324256  0.68046114     0.15300
H747        H  0.15009082  0.08245019  0.56523897     0.15000
N748        N  0.13300799  0.04756394  0.62894212     0.74100
O749        O  0.23313024  0.14413746  0.62410370    -0.39400
O750        O  0.26228589  0.10900940  0.64337014    -0.39300
O751        O  0.11760768  0.05187820  0.66172929    -0.40000
O752        O  0.12049375  0.03720074  0.59526795    -0.40100
O753        O  0.15882767  0.52114968  0.29910955    -0.73000
O754        O  0.14843395  0.96555964  0.20714971    -0.74000
O755        O  0.15341783  0.96484313  0.29911095    -0.62600
O756        O  0.15576589  0.52350107  0.20680580    -0.71000
O757        O  0.20457168  0.52354573  0.20715051    -0.70600
O758        O  0.20168074  0.96107221  0.29401939    -0.61800
O759        O  0.19720941  0.96405571  0.20307754    -0.74400
O760        O  0.20778010  0.51914631  0.29933416    -0.73100
Cu761      Cu  0.15384649  0.49129836  0.25381959     1.04600
Cu762      Cu  0.20387079  0.99375167  0.24850412     1.04300
C763        C  0.18405600  0.52852429  0.31504166     0.93200
C764        C  0.17144744  0.95478939  0.19151868     0.92300
C765        C  0.17746392  0.95267829  0.31144682     0.84500
C766        C  0.18029583  0.53392144  0.19241729     0.90700
C767        C  0.18907983  0.60743391  0.46098039     0.86400
C768        C  0.16862235  0.63334653  0.46582483    -0.53800
C769        C  0.17716962  0.65555717  0.99880934     0.09300
C770        C  0.20286653  0.64415084  0.02811042     0.20300
C771        C  0.21996810  0.62135029  0.46039642    -0.54600
C772        C  0.22854244  0.64085467  0.99556408     0.09400
C773        C  0.18710416  0.59105937  0.50492427    -0.54100
C774        C  0.19270358  0.61216873  0.04167370     0.10000
H775        H  0.14791643  0.63625554  0.44886115     0.14500
H776        H  0.20837917  0.65924860  0.05507085     0.00300
H777        H  0.23591265  0.61494099  0.43713807     0.14800
H778        H  0.17889867  0.57254811  0.00830045     0.14600
C779        C  0.19287541  0.87659642  0.05494607     0.86400
C780        C  0.17883380  0.84618696  0.05135110    -0.53800
C781        C  0.18584545  0.83196911  0.50940875     0.09300
C782        C  0.20828501  0.84981772  0.48103030     0.20300
C783        C  0.22619374  0.87257886  0.05313730    -0.54600
C784        C  0.23271845  0.86090762  0.51389569     0.09400
C785        C  0.18562436  0.89223894  0.01116631    -0.54100
C786        C  0.19158440  0.87799428  0.46606819     0.10000
H787        H  0.16142151  0.83872831  0.07278775     0.14500
H788        H  0.21715382  0.83634032  0.45507064     0.00300
H789        H  0.24166587  0.88418877  0.07468608     0.14800
H790        H  0.17145852  0.91374265  0.49647915     0.14600
O791        O  0.28592286  0.54101617  0.28790016    -0.73000
O792        O  0.29165470  0.97382687  0.20183029    -0.74000
O793        O  0.28721917  0.98023791  0.29362250    -0.62600
O794        O  0.29209457  0.53615958  0.19757836    -0.71000
O795        O  0.34102111  0.53850335  0.20510337    -0.70600
O796        O  0.33625083  0.97856883  0.29758481    -0.61800
O797        O  0.34052521  0.97600847  0.20551401    -0.74400
O798        O  0.33457844  0.54100930  0.29589308    -0.73100
Cu799      Cu  0.28872392  0.00798003  0.24485783     1.04600
Cu800      Cu  0.34100782  0.00835756  0.25092089     1.04300
C801        C  0.30962534  0.55130304  0.30606576     0.93200
C802        C  0.31660783  0.96503357  0.18882907     0.92300
C803        C  0.31081972  0.97097423  0.31126592     0.84500
C804        C  0.31725979  0.54617636  0.18604784     0.90700
C805        C  0.30336830  0.62331929  0.04036412     0.86400
C806        C  0.31798867  0.65406975  0.03849322    -0.53800
C807        C  0.30821049  0.66674008  0.50342809     0.09300
C808        C  0.28464064  0.65041096  0.47387561     0.20300
C809        C  0.27066322  0.62942255  0.04021125    -0.54600
C810        C  0.25947908  0.64150615  0.50564709     0.09400
C811        C  0.30958548  0.60954197  0.99658038    -0.54100
C812        C  0.29968177  0.62123020  0.46164991     0.10000
H813        H  0.33595571  0.66148501  0.05958835     0.14500
H814        H  0.27710246  0.66360322  0.44554162     0.00300
H815        H  0.25590228  0.61887685  0.06259774     0.14800
H816        H  0.31890046  0.58479130  0.49557671     0.14600
C817        C  0.30016773  0.89451957  0.46000549     0.86400
C818        C  0.31667828  0.86544920  0.45865222    -0.53800
C819        C  0.31436039  0.84542601  0.98948592     0.09300
C820        C  0.29487694  0.85940365  0.02493640     0.20300
C821        C  0.26828451  0.88541772  0.46697947    -0.54600
C822        C  0.26494118  0.86496942  0.00111402     0.09400
C823        C  0.31087279  0.90874387  0.50265358    -0.54100
C824        C  0.30896962  0.89084260  0.03351714     0.10000
H825        H  0.33341203  0.86068614  0.43597840     0.14500
H826        H  0.29213526  0.84483227  0.05332073     0.00300
H827        H  0.25038999  0.89389109  0.44742306     0.14800
H828        H  0.32053291  0.92829326  0.99291362     0.14600
O829        O  0.45605891  0.66062891  0.29215999    -0.73000
O830        O  0.02481739  0.66244334  0.21386663    -0.74000
O831        O  0.02228760  0.66293029  0.30596248    -0.62600
O832        O  0.45877663  0.66101454  0.19964744    -0.71000
O833        O  0.46127458  0.70972579  0.20171059    -0.70600
O834        O  0.02303584  0.71175407  0.30560006    -0.61800
O835        O  0.02545896  0.71145432  0.21339870    -0.74400
O836        O  0.45959692  0.70956550  0.29251888    -0.73100
Cu837      Cu  0.48873869  0.65754693  0.25085895     1.04600
Cu838      Cu  0.49175878  0.70978934  0.25116269     1.04300
C839        C  0.44754431  0.68550510  0.30533411     0.93200
C840        C  0.03489680  0.68703457  0.19980759     0.92300
C841        C  0.03194230  0.68747292  0.32197178     0.84500
C842        C  0.45039087  0.68605348  0.18480894     0.90700
C843        C  0.11404571  0.68926405  0.05637109     0.86400
C844        C  0.14094068  0.67056586  0.05040204    -0.53800
C845        C  0.15456689  0.67261682  0.51344656     0.09300
C846        C  0.14193587  0.69786525  0.48438720     0.20300
C847        C  0.12654899  0.72089757  0.05306588    -0.54600
C848        C  0.14381946  0.72544211  0.51411515     0.07400
C849        C  0.09484261  0.68446065  0.01497864    -0.54100
C850        C  0.10827766  0.69091202  0.47905074     0.10000
H851        H  0.14851718  0.65353655  0.07201727     0.14500
H852        H  0.15345914  0.70095730  0.45326376     0.00300
H853        H  0.12156137  0.73734537  0.07643019     0.14800
H854        H  0.07232959  0.68018919  0.52078525     0.14600
C855        C  0.36939619  0.70478736  0.44353807     0.86400
C856        C  0.34137191  0.68652334  0.44958912    -0.53800
C857        C  0.32996587  0.69385313  0.98804530     0.09300
C858        C  0.34785363  0.71632509  0.01755729     0.20300
C859        C  0.36056194  0.73660818  0.44911313    -0.54600
C860        C  0.35409972  0.74374760  0.98730583     0.09400
C861        C  0.38926157  0.69889532  0.48410126    -0.54100
C862        C  0.37839314  0.70194188  0.02521069     0.10000
H863        H  0.33427323  0.66944746  0.42690594     0.14500
H864        H  0.33639440  0.72178513  0.04771750     0.00300
H865        H  0.36748536  0.75409854  0.42750701     0.14800
H866        H  0.41392396  0.68894057  0.98560420     0.14600
O867        O  0.03311528  0.78798896  0.20423757    -0.73000
O868        O  0.46833108  0.78256246  0.29729331    -0.74000
O869        O  0.46698014  0.78625462  0.20437784    -0.62600
O870        O  0.03382361  0.78556845  0.29500154    -0.71000
O871        O  0.03571449  0.83455030  0.29560971    -0.70600
O872        O  0.46821957  0.83515791  0.20764214    -0.61800
O873        O  0.46993913  0.83132164  0.30004747    -0.74400
O874        O  0.03358060  0.83673349  0.20359340    -0.73100
Cu875      Cu  0.49858655  0.78246276  0.24913426     1.04600
Cu876      Cu  0.50025446  0.83470738  0.25130954     1.04300
C877        C  0.04315726  0.81245374  0.18890532     0.93200
C878        C  0.46002456  0.80644719  0.31459525     0.92300
C879        C  0.45855165  0.81129262  0.19060762     0.84500
C880        C  0.04488036  0.80981069  0.30915964     0.90700
C881        C  0.12435220  0.79385207  0.45091464     0.86400
C882        C  0.15350616  0.81043226  0.45567820    -0.53800
C883        C  0.16498003  0.80841940  0.00037954     0.09300
C884        C  0.14725245  0.78656293  0.03010783     0.20300
C885        C  0.13118888  0.76174962  0.45902485    -0.54600
C886        C  0.14072759  0.75900011  0.00098587     0.09400
C887        C  0.10580659  0.80198861  0.49066809    -0.54100
C888        C  0.11678314  0.80109231  0.03566946     0.10000
H889        H  0.16060981  0.82688218  0.43207823     0.14500
H890        H  0.15895872  0.78139167  0.06101719     0.00300
H891        H  0.12259439  0.74425423  0.43844337     0.14800
H892        H  0.08096900  0.81375170  0.99359168     0.14600
C893        C  0.38438731  0.81432332  0.03815156     0.86400
C894        C  0.35653740  0.83199160  0.03487796    -0.53800
C895        C  0.33657160  0.82621546  0.50334370     0.09300
C896        C  0.34803925  0.80150495  0.47261126     0.20300
C897        C  0.37253878  0.78230394  0.03625352    -0.54600
C898        C  0.34900420  0.77347277  0.50245323     0.09400
C899        C  0.40071569  0.81959288  0.99553436    -0.54100
C900        C  0.38127592  0.80957166  0.46437405     0.10000
H901        H  0.34975211  0.84751272  0.05861043     0.14500
H902        H  0.33457515  0.79834495  0.44249295     0.00300
H903        H  0.37935044  0.76580179  0.05935528     0.14800
H904        H  0.42003622  0.81911592  0.50288382     0.14600
C905        C  0.41619992  0.82575221  0.35299920    -0.12400
C906        C  0.43893548  0.80539727  0.35183101     0.04700
C907        C  0.44085404  0.78457357  0.38629994    -0.07600
C908        C  0.42089037  0.78553973  0.42102942    -0.08400
C909        C  0.39841898  0.80648092  0.42268448    -0.02900
C910        C  0.39608317  0.82619534  0.38726518     0.03900
N911        N  0.37347969  0.84716769  0.38511781     0.66400
H912        H  0.41384704  0.84155756  0.32676664     0.15300
H913        H  0.42357450  0.77031198  0.44792334     0.15000
N914        N  0.46388887  0.76344046  0.38811139     0.74100
O915        O  0.37962346  0.87336092  0.39625920    -0.39400
O916        O  0.35170928  0.84204535  0.35993748    -0.39300
O917        O  0.49031348  0.77154978  0.38182655    -0.40000
O918        O  0.45851116  0.73761509  0.40180569    -0.40100
C919        C  0.41939759  0.83588109  0.14826774    -0.12400
C920        C  0.43939742  0.81296939  0.15238785     0.04700
C921        C  0.44458011  0.79512033  0.11664032    -0.07600
C922        C  0.42765904  0.79810035  0.07950081    -0.08400
C923        C  0.40518794  0.81861397  0.07652556    -0.02900
C924        C  0.40314132  0.83992406  0.10970710     0.03900
N925        N  0.38873220  0.86742250  0.10304224     0.66400
H926        H  0.41772346  0.85163761  0.17423182     0.15300
H927        H  0.43136262  0.78316525  0.05299827     0.15000
N928        N  0.46780773  0.77462241  0.11646613     0.74100
O929        O  0.37691389  0.87995191  0.13437958    -0.39400
O930        O  0.39308353  0.88195075  0.06865032    -0.39300
O931        O  0.46377371  0.74996458  0.13465020    -0.40000
O932        O  0.48738483  0.77744092  0.08817913    -0.40100
C933        C  0.08823175  0.78585839  0.33966589    -0.12400
C934        C  0.06843199  0.80892976  0.34152322     0.04700
C935        C  0.07186025  0.83063608  0.37372393    -0.07600
C936        C  0.09323427  0.82696269  0.40594352    -0.08400
C937        C  0.10954801  0.80110507  0.40824716    -0.02900
C938        C  0.10988279  0.78248206  0.37173029     0.03900
N939        N  0.13285068  0.76178743  0.36520199     0.66400
H940        H  0.08711271  0.77071206  0.31270038     0.15300
H941        H  0.09505457  0.84304558  0.43168173     0.15000
N942        N  0.05225331  0.85482757  0.37677138     0.74100
O943        O  0.12745417  0.73831893  0.34445447    -0.39400
O944        O  0.15928270  0.76863792  0.37521956    -0.39300
O945        O  0.02478905  0.84988532  0.37901253    -0.40000
O946        O  0.06254804  0.88029307  0.38534397    -0.40100
C947        C  0.06300468  0.83232130  0.11853668    -0.12400
C948        C  0.06545976  0.81232210  0.15325956     0.04700
C949        C  0.08851545  0.79176264  0.15221017    -0.07600
C950        C  0.10645077  0.79018098  0.11531712    -0.08400
C951        C  0.10176977  0.80785824  0.07827360    -0.02900
C952        C  0.08115849  0.83088257  0.08188789     0.03900
N953        N  0.07947746  0.85401070  0.04996513     0.66400
H954        H  0.04661614  0.84921964  0.11980276     0.15300
H955        H  0.12442012  0.77515131  0.11622074     0.15000
N956        N  0.09460822  0.77283829  0.18866547     0.74100
O957        O  0.05509290  0.86565136  0.04098704    -0.39400
O958        O  0.10260588  0.86231517  0.52412670    -0.39300
O959        O  0.10432457  0.74737461  0.18289574    -0.40000
O960        O  0.09385758  0.78276110  0.22666751    -0.40100
C961        C  0.43051791  0.66822606  0.11250515    -0.12400
C962        C  0.42862623  0.68793971  0.14707831     0.04700
C963        C  0.40683373  0.70988097  0.14378672    -0.07600
C964        C  0.38959605  0.71286330  0.10515694    -0.08400
C965        C  0.39341643  0.69487311  0.06884887    -0.02900
C966        C  0.41294609  0.67092611  0.07432289     0.03900
N967        N  0.41386166  0.64796625  0.04274644     0.66400
H968        H  0.44594703  0.65044356  0.11515033     0.15300
H969        H  0.37288217  0.72932844  0.10395721     0.15000
N970        N  0.40130404  0.72885794  0.17962221     0.74100
O971        O  0.43796396  0.63607905  0.03456849    -0.39400
O972        O  0.39008148  0.63646203  0.02814549    -0.39300
O973        O  0.39260972  0.75473170  0.17292041    -0.40000
O974        O  0.40134917  0.71867347  0.21773750    -0.40100
C975        C  0.40432443  0.71022648  0.33240205    -0.12400
C976        C  0.42387691  0.68693058  0.33613950     0.04700
C977        C  0.42089644  0.66617636  0.36981048    -0.07600
C978        C  0.40069387  0.67118461  0.40188022    -0.08400
C979        C  0.38407607  0.69693219  0.40176426    -0.02900
C980        C  0.38327566  0.71460225  0.36379177     0.03900
N981        N  0.36030328  0.73516297  0.35493758     0.66400
H982        H  0.40519355  0.72480566  0.30452270     0.15300
H983        H  0.40010802  0.65620202  0.42920279     0.15000
N984        N  0.43998359  0.64160529  0.37436916     0.74100
O985        O  0.36571686  0.75850099  0.33371790    -0.39400
O986        O  0.33385793  0.72822925  0.36325232    -0.39300
O987        O  0.46747236  0.64598398  0.37912858    -0.40000
O988        O  0.42909404  0.61610376  0.38084095    -0.40100
C989        C  0.04349081  0.70315252  0.39801417    -0.12400
C990        C  0.05235570  0.68822009  0.36106797     0.04700
C991        C  0.08097758  0.67637634  0.36166677    -0.07600
C992        C  0.09940846  0.67906082  0.39929822    -0.08400
C993        C  0.08978311  0.69228753  0.43734909    -0.02900
C994        C  0.06159513  0.70548070  0.43567912     0.03900
N995        N  0.05136939  0.72249230  0.47112700     0.66400
H996        H  0.02218007  0.71343357  0.39743508     0.15300
H997        H  0.12113264  0.66999046  0.39934227     0.15000
N998        N  0.09204865  0.66242570  0.32404732     0.74100
O999        O  0.02449944  0.72112941  0.48106987    -0.39400
O1000       O  0.06815922  0.74173509  0.48872793    -0.39300
O1001       O  0.11740395  0.66939830  0.31064677    -0.40000
O1002       O  0.07785703  0.64117688  0.30665729    -0.40100
C1003       C  0.07897294  0.66708007  0.16573241    -0.12400
C1004       C  0.05621866  0.68728599  0.16542736     0.04700
C1005       C  0.05214278  0.70590774  0.12977428    -0.07600
C1006       C  0.07161640  0.70565520  0.09637499    -0.08400
C1007       C  0.09499079  0.68600103  0.09589051    -0.02900
C1008       C  0.09811716  0.66573689  0.13087639     0.03900
N1009       N  0.11807275  0.64203145  0.13036764     0.66400
H1010       H  0.08122568  0.65159004  0.19240069     0.15300
H1011       H  0.06794988  0.72086168  0.06966176     0.15000
N1012       N  0.02704274  0.72387077  0.12533303     0.74100
O1013       O  0.13853938  0.64083576  0.15860882    -0.39400
O1014       O  0.11100506  0.61924747  0.10897828    -0.39300
O1015       O  0.02922346  0.75011937  0.13811467    -0.40000
O1016       O  0.00697949  0.71663116  0.09822198    -0.40100
C1017       C  0.30504034  0.91533647  0.15362859    -0.12400
C1018       C  0.31803921  0.94384586  0.15183550     0.04700
C1019       C  0.33252558  0.95227838  0.11366457    -0.07600
C1020       C  0.33128346  0.93383373  0.07730519    -0.08400
C1021       C  0.31590073  0.90621455  0.07698574    -0.02900
C1022       C  0.30538998  0.89604164  0.11760998     0.03900
N1023       N  0.29845346  0.86556088  0.12460636     0.66400
H1024       H  0.29570464  0.90752875  0.18372353     0.15300
H1025       H  0.34297360  0.94171978  0.04930770     0.15000
N1026       N  0.34756151  0.98033041  0.11042738     0.74100
O1027       O  0.31906112  0.84747635  0.12781113    -0.39400
O1028       O  0.27294368  0.85754386  0.13572720    -0.39300
O1029       O  0.37227473  0.98433844  0.12932841    -0.40000
O1030       O  0.33887347  0.99899782  0.08283870    -0.40100
C1031       C  0.31604596  0.90513613  0.38301840    -0.12400
C1032       C  0.30301429  0.91494007  0.42110350     0.04700
C1033       C  0.29122595  0.94364623  0.42123585    -0.07600
C1034       C  0.29404240  0.96167861  0.38479987    -0.08400
C1035       C  0.30850638  0.95179309  0.34844809    -0.02900
C1036       C  0.31977775  0.92355725  0.34753583     0.03900
N1037       N  0.33373316  0.91282421  0.30990050     0.66400
H1038       H  0.32208271  0.88276759  0.37901716     0.15300
H1039       H  0.28501895  0.98357561  0.38493721     0.15000
N1040       N  0.27616312  0.95483871  0.45767582     0.74100
O1041       O  0.36150684  0.91202778  0.30883654    -0.39400
O1042       O  0.31830619  0.90237019  0.27890938    -0.39300
O1043       O  0.28753677  0.97632676  0.47834223    -0.40000
O1044       O  0.24905856  0.94874236  0.46190298    -0.40100
C1045       C  0.28387285  0.61122045  0.38344374    -0.12400
C1046       C  0.30528414  0.60930725  0.41692567     0.04700
C1047       C  0.33054625  0.59231778  0.40906229    -0.07600
C1048       C  0.33152235  0.57472489  0.37204868    -0.08400
C1049       C  0.30853239  0.57394080  0.34105250    -0.02900
C1050       C  0.28498230  0.59357744  0.34588717     0.03900
N1051       N  0.26238107  0.59630370  0.31294417     0.66400
H1052       H  0.26600187  0.62626262  0.38637046     0.15300
H1053       H  0.35044572  0.56101206  0.36792809     0.15000
N1054       N  0.35583910  0.59317027  0.43781481     0.74100
O1055       O  0.23602826  0.60039169  0.32332519    -0.39400
O1056       O  0.26925681  0.59854527  0.27365661    -0.39300
O1057       O  0.37115349  0.57058821  0.44369530    -0.40000
O1058       O  0.36434701  0.61719701  0.45466540    -0.40100
C1059       C  0.29945633  0.55655677  0.11404047    -0.12400
C1060       C  0.31804519  0.56516091  0.14832660     0.04700
C1061       C  0.33545003  0.59125135  0.14570540    -0.07600
C1062       C  0.33190532  0.60952214  0.10940716    -0.08400
C1063       C  0.31112910  0.60213532  0.07640846    -0.02900
C1064       C  0.29592280  0.57435524  0.07816922     0.03900
N1065       N  0.27554338  0.56433952  0.04489946     0.66400
H1066       H  0.28693603  0.53585816  0.11544064     0.15300
H1067       H  0.34461674  0.62990231  0.10866235     0.15000
N1068       N  0.35537830  0.60034265  0.18015486     0.74100
O1069       O  0.24829597  0.56352949  0.05253746    -0.39400
O1070       O  0.28478733  0.54833676  0.01511584    -0.39300
O1071       O  0.37987896  0.61263401  0.17147576    -0.40000
O1072       O  0.34714453  0.59954077  0.21892293    -0.40100
C1073       C  0.15964644  0.90676248  0.41352321    -0.12400
C1074       C  0.18550587  0.89037603  0.42035044     0.04700
C1075       C  0.20548537  0.89018270  0.38543351    -0.07600
C1076       C  0.20236792  0.91064958  0.35077371    -0.08400
C1077       C  0.17796801  0.92921844  0.34663609    -0.02900
C1078       C  0.15535746  0.92536070  0.37724051     0.03900
N1079       N  0.12802424  0.94036786  0.37275048     0.66400
H1080       H  0.14230322  0.90530366  0.43707306     0.15300
H1081       H  0.21883506  0.91134474  0.32586730     0.15000
N1082       N  0.22741521  0.86819875  0.38212563     0.74100
O1083       O  0.11111780  0.93480974  0.34069409    -0.39400
O1084       O  0.11791805  0.95360297  0.40478887    -0.39300
O1085       O  0.21901214  0.84155023  0.37915946    -0.40000
O1086       O  0.25262595  0.87550053  0.36842584    -0.40100
C1087       C  0.18861662  0.90746965  0.16906783    -0.12400
C1088       C  0.16926529  0.93039414  0.16141225     0.04700
C1089       C  0.15180927  0.93084056  0.12329735    -0.07600
C1090       C  0.15858110  0.91149186  0.09033682    -0.08400
C1091       C  0.18219718  0.89199004  0.09484914    -0.02900
C1092       C  0.19420976  0.88694944  0.13712200     0.03900
N1093       N  0.21151770  0.86171825  0.14892901     0.66400
H1094       H  0.19984543  0.90603644  0.20031593     0.15300
H1095       H  0.14525776  0.91196960  0.06093572     0.15000
N1096       N  0.12835908  0.95122444  0.11653536     0.74100
O1097       O  0.22545713  0.86140919  0.18477175    -0.39400
O1098       O  0.20818865  0.83770576  0.12893568    -0.39300
O1099       O  0.12271110  0.96082831  0.07889791    -0.40000
O1100       O  0.10956154  0.95453715  0.14550992    -0.40100
C1101       C  0.16509215  0.57037322  0.35320186    -0.12400
C1102       C  0.18520998  0.54776055  0.35236226     0.04700
C1103       C  0.20541448  0.54397672  0.38697542    -0.07600
C1104       C  0.20481100  0.56316143  0.42184494    -0.08400
C1105       C  0.18513135  0.58670556  0.42271263    -0.02900
C1106       C  0.16534462  0.59034917  0.38696882     0.03900
N1107       N  0.14757362  0.61543966  0.38105844     0.66400
H1108       H  0.15000519  0.57364987  0.32596370     0.15300
H1109       H  0.22040054  0.56000739  0.44847504     0.15000
N1110       N  0.22624529  0.52069951  0.38781573     0.74100
O1111       O  0.15919115  0.63870797  0.36567338    -0.39400
O1112       O  0.11983537  0.61209892  0.38019893    -0.39300
O1113       O  0.25230693  0.52573203  0.40155848    -0.40000
O1114       O  0.21765010  0.49443274  0.38096197    -0.40100
C1115       C  0.20458520  0.57841777  0.15645745    -0.12400
C1116       C  0.18091939  0.55771782  0.15794935     0.04700
C1117       C  0.15859522  0.55989653  0.12571089    -0.07600
C1118       C  0.16219632  0.57937627  0.09042172    -0.08400
C1119       C  0.18702943  0.59870420  0.08658368    -0.02900
C1120       C  0.20699283  0.59988680  0.12290023     0.03900
N1121       N  0.22849286  0.62332507  0.12840894     0.66400
H1122       H  0.22087876  0.57857667  0.18262608     0.15300
H1123       H  0.14539447  0.57885897  0.06494879     0.15000
N1124       N  0.13265133  0.54141053  0.12696434     0.74100
O1125       O  0.21999661  0.64955715  0.12878326    -0.39400
O1126       O  0.25353891  0.61780835  0.14474364    -0.39300
O1127       O  0.11024389  0.55012135  0.14620364    -0.40000
O1128       O  0.13028622  0.51931892  0.10252204    -0.40100
O1129       O  0.16146861  0.51834919  0.80436142    -0.73000
O1130       O  0.15206107  0.96131520  0.70928675    -0.74000
O1131       O  0.15631705  0.96071621  0.80188136    -0.62600
O1132       O  0.16204086  0.52120039  0.71173945    -0.71000
O1133       O  0.21076374  0.52523326  0.71572379    -0.70600
O1134       O  0.20467355  0.95641700  0.79810923    -0.61800
O1135       O  0.20090855  0.95822031  0.70645252    -0.74400
O1136       O  0.21051510  0.51942973  0.80824732    -0.73100
Cu1137     Cu  0.16076128  0.48875250  0.75803432     1.04600
Cu1138     Cu  0.20728978  0.98843704  0.75152057     1.04300
C1139       C  0.18568283  0.52719569  0.82214926     0.93200
C1140       C  0.17503875  0.95040180  0.69353279     0.92300
C1141       C  0.18020198  0.94895053  0.81561825     0.84500
C1142       C  0.18618636  0.53307041  0.69834086     0.90700
C1143       C  0.18943144  0.61092685  0.96164070     0.86400
C1144       C  0.17030053  0.63808076  0.96444067    -0.53800
C1145       C  0.17573105  0.65080122  0.49992990     0.09300
C1146       C  0.20215775  0.64002945  0.52817196     0.20300
C1147       C  0.22084428  0.62358990  0.96156895    -0.54600
C1148       C  0.22756124  0.63805073  0.49500122     0.09400
C1149       C  0.18616064  0.59550629  0.00589126    -0.54100
C1150       C  0.19328109  0.60760259  0.54124066     0.10000
H1151       H  0.15097335  0.64247506  0.94506521     0.14500
H1152       H  0.20750344  0.65502890  0.55526230     0.00300
H1153       H  0.23684533  0.61609724  0.93923276     0.14800
H1154       H  0.18094981  0.56779796  0.50665750     0.14600
C1155       C  0.18809988  0.87861005  0.54618998     0.86400
C1156       C  0.17552150  0.84766813  0.54246985    -0.53800
C1157       C  0.18650980  0.83104463  0.01611787     0.09300
C1158       C  0.20861561  0.84845127  0.98671507     0.20300
C1159       C  0.22160463  0.87576010  0.54763198    -0.54600
C1160       C  0.23493653  0.85815199  0.01733908     0.09400
C1161       C  0.18179975  0.89285216  0.50120053    -0.54100
C1162       C  0.19285332  0.87753294  0.97434908     0.10000
H1163       H  0.15665822  0.84038399  0.56086760     0.14500
H1164       H  0.21595117  0.83491544  0.95978334     0.00300
H1165       H  0.23555034  0.88885607  0.56931091     0.14800
H1166       H  0.17741307  0.91440926  0.00969926     0.14600
O1167       O  0.28107188  0.53998456  0.79120973    -0.73000
O1168       O  0.29749176  0.97691039  0.70331766    -0.74000
O1169       O  0.29207896  0.98163992  0.79420830    -0.62600
O1170       O  0.28689475  0.53548821  0.70050785    -0.71000
O1171       O  0.33580417  0.53688809  0.70876026    -0.70600
O1172       O  0.34100116  0.97963433  0.79995544    -0.61800
O1173       O  0.34636762  0.97767262  0.70785180    -0.74400
O1174       O  0.32957082  0.53815128  0.79953673    -0.73100
Cu1175     Cu  0.29431795  0.01025904  0.74642589     1.04600
Cu1176     Cu  0.34656958  0.00985466  0.75381307     1.04300
C1177       C  0.30507366  0.54959829  0.80941627     0.93200
C1178       C  0.32224278  0.96743753  0.69075017     0.92300
C1179       C  0.31530390  0.97147891  0.81189300     0.84500
C1180       C  0.31233506  0.54490744  0.68927265     0.90700
C1181       C  0.30195540  0.61993349  0.54094196     0.86400
C1182       C  0.31690262  0.65058790  0.53869326    -0.53800
C1183       C  0.30924190  0.67040043  0.00349233     0.09300
C1184       C  0.28549687  0.65401287  0.97385560     0.20300
C1185       C  0.26930499  0.62620930  0.54022945    -0.54600
C1186       C  0.26051052  0.64481055  0.00591110     0.09400
C1187       C  0.30826374  0.60583225  0.49744551    -0.54100
C1188       C  0.30046548  0.62483810  0.96100690     0.10000
H1189       H  0.33500142  0.65798050  0.55962991     0.14500
H1190       H  0.27767969  0.66730132  0.94578652     0.00300
H1191       H  0.25435139  0.61574697  0.56245853     0.14800
H1192       H  0.32031326  0.58855568  0.99436135     0.14600
C1193       C  0.29903340  0.89073367  0.95434736     0.86400
C1194       C  0.31551014  0.86170661  0.95265819    -0.53800
C1195       C  0.31320372  0.84784955  0.49367583     0.09300
C1196       C  0.29249458  0.86115005  0.52798692     0.20300
C1197       C  0.26773766  0.88158869  0.96489212    -0.54600
C1198       C  0.26365059  0.86777250  0.50163274     0.09400
C1199       C  0.31161860  0.90606740  0.99521726    -0.54100
C1200       C  0.30687192  0.89208075  0.53938146     0.10000
H1201       H  0.33028132  0.85593007  0.92746848     0.14500
H1202       H  0.28874595  0.84604536  0.55544447     0.00300
H1203       H  0.24906500  0.88917489  0.94629155     0.14800
H1204       H  0.32029852  0.93094323  0.50330418     0.14600
O1205       O  0.45631551  0.66287019  0.78821505    -0.73000
O1206       O  0.02600686  0.66562805  0.71276442    -0.74000
O1207       O  0.02338668  0.66555915  0.80420460    -0.62600
O1208       O  0.45945760  0.66277311  0.69602485    -0.71000
O1209       O  0.45986991  0.71154898  0.69753136    -0.70600
O1210       O  0.02275650  0.71437477  0.80461548    -0.61800
O1211       O  0.02546714  0.71462966  0.71247510    -0.74400
O1212       O  0.45763558  0.71189067  0.78814601    -0.73100
Cu1213     Cu  0.48916852  0.66091691  0.74756950     1.04600
Cu1214     Cu  0.49010452  0.71322944  0.74689177     1.04300
C1215       C  0.44692312  0.68732674  0.80150702     0.93200
C1216       C  0.03574696  0.69045955  0.69921936     0.92300
C1217       C  0.03232487  0.69022519  0.82051399     0.84500
C1218       C  0.45002413  0.68736688  0.68103880     0.90700
C1219       C  0.11635172  0.69002067  0.55833225     0.86400
C1220       C  0.14072738  0.66839798  0.55147241    -0.53800
C1221       C  0.15498933  0.67631312  0.01284778     0.09300
C1222       C  0.14093680  0.70106612  0.98432422     0.20300
C1223       C  0.13137973  0.72034325  0.55291643    -0.54600
C1224       C  0.13998218  0.72775703  0.01545867     0.07400
C1225       C  0.09566434  0.68580212  0.51809425    -0.54100
C1226       C  0.10800618  0.69175894  0.97713392     0.10000
H1227       H  0.14563493  0.64966031  0.57180010     0.14500
H1228       H  0.15274668  0.70588804  0.95385567     0.00300
H1229       H  0.12855325  0.73756407  0.57595509     0.14800
H1230       H  0.07178073  0.67738630  0.01604277     0.14600
C1231       C  0.37299120  0.70398151  0.94521779     0.86400
C1232       C  0.34338575  0.68840317  0.95028785    -0.53800
C1233       C  0.32818687  0.69066772  0.48790796     0.09300
C1234       C  0.34452810  0.71410746  0.51711924     0.20300
C1235       C  0.36706586  0.73652755  0.94999667    -0.54600
C1236       C  0.34777473  0.74230184  0.48729966     0.09400
C1237       C  0.39151416  0.69659935  0.98668887    -0.54100
C1238       C  0.37633660  0.70226125  0.52328031     0.10000
H1239       H  0.33534712  0.67177119  0.92751694     0.14500
H1240       H  0.33305299  0.71805043  0.54780699     0.00300
H1241       H  0.37517212  0.75304085  0.92755010     0.14800
H1242       H  0.41218160  0.69304223  0.48148242     0.14600
O1243       O  0.03723485  0.79043955  0.70157273    -0.73000
O1244       O  0.47321965  0.78140172  0.79501322    -0.74000
O1245       O  0.47162051  0.78005110  0.70194731    -0.62600
O1246       O  0.03878413  0.79092693  0.79277371    -0.71000
O1247       O  0.03929463  0.83987808  0.79128272    -0.70600
O1248       O  0.47027805  0.82902463  0.70132178    -0.61800
O1249       O  0.47236697  0.83015259  0.79275816    -0.74400
O1250       O  0.03698275  0.83913334  0.69837307    -0.73100
Cu1251     Cu  0.50368919  0.78032559  0.74699404     1.04600
Cu1252     Cu  0.50249325  0.83256026  0.74392371     1.04300
C1253       C  0.04679322  0.81461189  0.68469857     0.93200
C1254       C  0.46344908  0.80559776  0.80952124     0.92300
C1255       C  0.46106702  0.80408452  0.68750416     0.84500
C1256       C  0.04915666  0.81572796  0.80601197     0.90700
C1257       C  0.12157790  0.79826354  0.95612691     0.86400
C1258       C  0.15122239  0.81384891  0.96195375    -0.53800
C1259       C  0.16726775  0.80671903  0.49448626     0.09300
C1260       C  0.15027015  0.78486920  0.52536644     0.20300
C1261       C  0.12735941  0.76571136  0.96270960    -0.54600
C1262       C  0.14468211  0.75632020  0.49766592     0.09400
C1263       C  0.10340593  0.80616936  0.99628083    -0.54100
C1264       C  0.11922671  0.79842317  0.53033849     0.10000
H1265       H  0.15902752  0.83041803  0.93908115     0.14500
H1266       H  0.16225970  0.78087234  0.55643900     0.00300
H1267       H  0.11872991  0.74894267  0.94078119     0.14800
H1268       H  0.08319457  0.80900656  0.48727122     0.14600
C1269       C  0.37864865  0.80916173  0.54407808     0.86400
C1270       C  0.35335570  0.83023098  0.53970986    -0.53800
C1271       C  0.33980584  0.82628486  0.99896563     0.09300
C1272       C  0.35277415  0.80214929  0.96891857     0.20300
C1273       C  0.36414431  0.77863183  0.53982512    -0.54600
C1274       C  0.35639518  0.77526914  0.00028014     0.09400
C1275       C  0.39644093  0.81417637  0.50229503    -0.54100
C1276       C  0.38512822  0.81261795  0.95882619     0.10000
H1277       H  0.34983835  0.84859747  0.56075445     0.14500
H1278       H  0.33911744  0.79714610  0.93950391     0.00300
H1279       H  0.36933127  0.76126229  0.56232022     0.14800
H1280       H  0.42399929  0.82591955  0.99483673     0.14600
C1281       C  0.41909784  0.82580408  0.84622489    -0.12400
C1282       C  0.44186668  0.80534743  0.84614361     0.04700
C1283       C  0.44383977  0.78548978  0.88163753    -0.07600
C1284       C  0.42415042  0.78736503  0.91639926    -0.08400
C1285       C  0.40185066  0.80850582  0.91719524    -0.02900
C1286       C  0.39937311  0.82759423  0.88098582     0.03900
N1287       N  0.37807694  0.85013099  0.87966308     0.66400
H1288       H  0.41700448  0.84115732  0.81938129     0.15300
H1289       H  0.42709237  0.77284961  0.94408308     0.15000
N1290       N  0.46702859  0.76469846  0.88458167     0.74100
O1291       O  0.38052802  0.87115594  0.90611043    -0.39400
O1292       O  0.36186264  0.85283938  0.84626483    -0.39300
O1293       O  0.49359943  0.77372941  0.88592293    -0.40000
O1294       O  0.46100649  0.73787263  0.89219211    -0.40100
C1295       C  0.41451908  0.82196517  0.65711520    -0.12400
C1296       C  0.43866641  0.80373694  0.65349698     0.04700
C1297       C  0.44262966  0.78800965  0.61553490    -0.07600
C1298       C  0.42268350  0.79069105  0.58163776    -0.08400
C1299       C  0.39854193  0.80936908  0.58393305    -0.02900
C1300       C  0.39392925  0.82446140  0.62320327     0.03900
N1301       N  0.36772214  0.83996738  0.63142490     0.66400
H1302       H  0.41126914  0.83379390  0.68693566     0.15300
H1303       H  0.42616040  0.77776531  0.55287478     0.15000
N1304       N  0.46746589  0.77008674  0.60990098     0.74100
O1305       O  0.34442498  0.82548883  0.64006713    -0.39400
O1306       O  0.36945631  0.86713925  0.63988761    -0.39300
O1307       O  0.46528685  0.74337738  0.62096004    -0.40000
O1308       O  0.48646919  0.77793430  0.58256037    -0.40100
C1309       C  0.09324110  0.79429391  0.83918135    -0.12400
C1310       C  0.07205000  0.81608461  0.83967300     0.04700
C1311       C  0.07129275  0.83572924  0.87456790    -0.07600
C1312       C  0.08908219  0.83067317  0.91085875    -0.08400
C1313       C  0.10747650  0.80622384  0.91303032    -0.02900
C1314       C  0.11219337  0.79013958  0.87464899     0.03900
N1315       N  0.13607205  0.77014621  0.87068391     0.66400
H1316       H  0.09498228  0.78043328  0.81100178     0.15300
H1317       H  0.08773481  0.84555980  0.93792150     0.15000
N1318       N  0.05097667  0.85932911  0.87521677     0.74100
O1319       O  0.13245077  0.74676314  0.84908976    -0.39400
O1320       O  0.16173157  0.77757761  0.88383981    -0.39300
O1321       O  0.03154819  0.85968912  0.90384353    -0.40000
O1322       O  0.05580125  0.88213505  0.85256783    -0.40100
C1323       C  0.06518589  0.83178419  0.61172330    -0.12400
C1324       C  0.06875924  0.81366337  0.64843166     0.04700
C1325       C  0.09233151  0.79363269  0.64854005    -0.07600
C1326       C  0.10971906  0.79068322  0.61123514    -0.08400
C1327       C  0.10408501  0.80641981  0.57258301    -0.02900
C1328       C  0.08279786  0.82899961  0.57461140     0.03900
N1329       N  0.07987767  0.85049515  0.54051016     0.66400
H1330       H  0.04831692  0.84824760  0.61176930     0.15300
H1331       H  0.12815309  0.77626796  0.61320645     0.15000
N1332       N  0.09949879  0.77661751  0.68657971     0.74100
O1333       O  0.05487678  0.86047634  0.53061322    -0.39400
O1334       O  0.10281435  0.86534493  0.03471808    -0.39300
O1335       O  0.10980587  0.75118812  0.68305185    -0.40000
O1336       O  0.09895575  0.78823724  0.72353226    -0.40100
C1337       C  0.43250376  0.67094849  0.60718910    -0.12400
C1338       C  0.42815007  0.68830199  0.64366963     0.04700
C1339       C  0.40399870  0.70758583  0.64255270    -0.07600
C1340       C  0.38632997  0.71033407  0.60438698    -0.08400
C1341       C  0.39237107  0.69506444  0.56614885    -0.02900
C1342       C  0.41477441  0.67356292  0.56925620     0.03900
N1343       N  0.41829836  0.65242165  0.53570825     0.66400
H1344       H  0.44999741  0.65512821  0.60812335     0.15300
H1345       H  0.36751528  0.72430892  0.60529672     0.15000
N1346       N  0.39655142  0.72394149  0.68023050     0.74100
O1347       O  0.44375096  0.64470534  0.52542185    -0.39400
O1348       O  0.39609002  0.63773769  0.52196831    -0.39300
O1349       O  0.38622504  0.74941032  0.67628231    -0.40000
O1350       O  0.39698780  0.71170943  0.71704093    -0.40100
C1351       C  0.40247064  0.70848934  0.83077827    -0.12400
C1352       C  0.42434526  0.68742740  0.83399690     0.04700
C1353       C  0.42514547  0.66777124  0.86931843    -0.07600
C1354       C  0.40614313  0.67184065  0.90322530    -0.08400
C1355       C  0.38701742  0.69572350  0.90315055    -0.02900
C1356       C  0.38261659  0.71185331  0.86409022     0.03900
N1357       N  0.35814986  0.73103473  0.85729692     0.66400
H1358       H  0.40081117  0.72226905  0.80211204     0.15300
H1359       H  0.40798568  0.65732816  0.93098250     0.15000
N1360       N  0.44691313  0.64551547  0.87337613     0.74100
O1361       O  0.36113665  0.75413740  0.83461002    -0.39400
O1362       O  0.33267533  0.72310833  0.86922652    -0.39300
O1363       O  0.47396139  0.65283702  0.87546338    -0.40000
O1364       O  0.43905549  0.61925102  0.88186142    -0.40100
C1365       C  0.04414272  0.70618197  0.89624866    -0.12400
C1366       C  0.05277733  0.69114097  0.85930944     0.04700
C1367       C  0.08097446  0.67849417  0.85991303    -0.07600
C1368       C  0.09956189  0.68084272  0.89727816    -0.08400
C1369       C  0.09009284  0.69412216  0.93532840    -0.02900
C1370       C  0.06212332  0.70764023  0.93396271     0.03900
N1371       N  0.05167616  0.72341174  0.97036787     0.66400
H1372       H  0.02295031  0.71669556  0.89600516     0.15300
H1373       H  0.12104891  0.67122654  0.89722743     0.15000
N1374       N  0.09120052  0.66358870  0.82267644     0.74100
O1375       O  0.02628798  0.71759246  0.98463299    -0.39400
O1376       O  0.06586906  0.74580604  0.98423338    -0.39300
O1377       O  0.11458770  0.67243982  0.80474637    -0.40000
O1378       O  0.07865043  0.63984267  0.81041464    -0.40100
C1379       C  0.08162787  0.67179005  0.66903568    -0.12400
C1380       C  0.05808304  0.69108942  0.66633121     0.04700
C1381       C  0.05518289  0.70999346  0.63081803    -0.07600
C1382       C  0.07559661  0.70969377  0.59866409    -0.08400
C1383       C  0.09860487  0.68957674  0.59923598    -0.02900
C1384       C  0.10234812  0.67107457  0.63612272     0.03900
N1385       N  0.12738232  0.65299924  0.64260414     0.66400
H1386       H  0.08417160  0.65758329  0.69715454     0.15300
H1387       H  0.07244076  0.72457480  0.57145623     0.15000
N1388       N  0.02982932  0.72737724  0.62430063     0.74100
O1389       O  0.15240682  0.66501368  0.64985604    -0.39400
O1390       O  0.12367245  0.62576358  0.64995657    -0.39300
O1391       O  0.03239147  0.75480480  0.62977133    -0.40000
O1392       O  0.00880323  0.71713036  0.60107003    -0.40100
C1393       C  0.30173158  0.92156790  0.65595756    -0.12400
C1394       C  0.32246314  0.94497550  0.65542156     0.04700
C1395       C  0.34204439  0.94678813  0.62045207    -0.07600
C1396       C  0.33859196  0.92679726  0.58572597    -0.08400
C1397       C  0.31540637  0.90522472  0.58359536    -0.02900
C1398       C  0.29857689  0.90128314  0.62156503     0.03900
N1399       N  0.27834067  0.87701777  0.62700157     0.66400
H1400       H  0.28778048  0.91890691  0.68384673     0.15300
H1401       H  0.35329089  0.92946380  0.55874690     0.15000
N1402       N  0.36407323  0.97001773  0.61776935     0.74100
O1403       O  0.28844588  0.85147306  0.63062613    -0.39400
O1404       O  0.25395530  0.88194650  0.64398842    -0.39300
O1405       O  0.38939755  0.96458966  0.60413853    -0.40000
O1406       O  0.35709127  0.99649685  0.62284053    -0.40100
C1407       C  0.31265360  0.90134148  0.87615648    -0.12400
C1408       C  0.30039531  0.91093088  0.91494732     0.04700
C1409       C  0.29080078  0.94046075  0.91715387    -0.07600
C1410       C  0.29721139  0.95999821  0.88358488    -0.08400
C1411       C  0.31193650  0.95070052  0.84721153    -0.02900
C1412       C  0.31947253  0.92113201  0.84292280     0.03900
N1413       N  0.33332091  0.91078910  0.80476369     0.66400
H1414       H  0.31697937  0.87849133  0.87096190     0.15300
H1415       H  0.29054173  0.98268202  0.88580225     0.15000
N1416       N  0.27510700  0.95126952  0.95337306     0.74100
O1417       O  0.35762920  0.92215230  0.79316090    -0.39400
O1418       O  0.32351314  0.88773721  0.78623891    -0.39300
O1419       O  0.28514001  0.97365398  0.97338987    -0.40000
O1420       O  0.24851981  0.94332445  0.95841679    -0.40100
C1421       C  0.28230745  0.61283395  0.88418150    -0.12400
C1422       C  0.30481587  0.61212643  0.91623333     0.04700
C1423       C  0.32975093  0.59483891  0.90769740    -0.07600
C1424       C  0.32917559  0.57546514  0.87238015    -0.08400
C1425       C  0.30500070  0.57331747  0.84334551    -0.02900
C1426       C  0.28184421  0.59349587  0.84824270     0.03900
N1427       N  0.25805876  0.59515916  0.81694093     0.66400
H1428       H  0.26480743  0.62832309  0.88697611     0.15300
H1429       H  0.34793567  0.56160225  0.86790468     0.15000
N1430       N  0.35619636  0.59713314  0.93409006     0.74100
O1431       O  0.23226513  0.60016429  0.82907692    -0.39400
O1432       O  0.26346196  0.59615126  0.77703997    -0.39300
O1433       O  0.37239995  0.57515939  0.93965316    -0.40000
O1434       O  0.36480131  0.62180513  0.94878902    -0.40100
C1435       C  0.29588154  0.55417654  0.61616847    -0.12400
C1436       C  0.31389159  0.56308442  0.65086973     0.04700
C1437       C  0.33165095  0.58874900  0.64809489    -0.07600
C1438       C  0.32896867  0.60683999  0.61156891    -0.08400
C1439       C  0.30910768  0.59901566  0.57757121    -0.02900
C1440       C  0.29368446  0.57130252  0.57936752     0.03900
N1441       N  0.27439119  0.56072176  0.54514106     0.66400
H1442       H  0.28300720  0.53369581  0.61778881     0.15300
H1443       H  0.34182154  0.62716056  0.61114863     0.15000
N1444       N  0.35100318  0.59753240  0.68302828     0.74100
O1445       O  0.24690239  0.56015116  0.55082503    -0.39400
O1446       O  0.28455705  0.54390242  0.51707428    -0.39300
O1447       O  0.37801600  0.59161867  0.68204327    -0.40000
O1448       O  0.34172349  0.61352431  0.71278859    -0.40100
C1449       C  0.16420677  0.91192229  0.92502780    -0.12400
C1450       C  0.18655237  0.89081706  0.92923160     0.04700
C1451       C  0.20293514  0.88547246  0.89126543    -0.07600
C1452       C  0.20065089  0.90471504  0.85506244    -0.08400
C1453       C  0.17998391  0.92730631  0.85290339    -0.02900
C1454       C  0.16046184  0.92955492  0.88769716     0.03900
N1455       N  0.13725643  0.95036529  0.88664029     0.66400
H1456       H  0.14902536  0.91492044  0.95107532     0.15300
H1457       H  0.21455535  0.90129408  0.82755231     0.15000
N1458       N  0.22032337  0.85982379  0.88694774     0.74100
O1459       O  0.11531735  0.94616883  0.86139822    -0.39400
O1460       O  0.13557781  0.96884950  0.91675097    -0.39300
O1461       O  0.20714513  0.83506945  0.88360859    -0.40000
O1462       O  0.24616260  0.86259158  0.87273537    -0.40100
C1463       C  0.18162331  0.90122406  0.66364389    -0.12400
C1464       C  0.17198255  0.92994259  0.65809214     0.04700
C1465       C  0.16083655  0.93941503  0.61788480    -0.07600
C1466       C  0.16294953  0.92121859  0.58230076    -0.08400
C1467       C  0.17688870  0.89394360  0.58595658    -0.02900
C1468       C  0.18281890  0.88250961  0.62819164     0.03900
N1469       N  0.18773159  0.85178429  0.63605178     0.66400
H1470       H  0.18803295  0.89332019  0.69558394     0.15300
H1471       H  0.15488194  0.92990427  0.55203242     0.15000
N1472       N  0.15008693  0.96855902  0.61166929     0.74100
O1473       O  0.16559376  0.83437094  0.63711075    -0.39400
O1474       O  0.21109851  0.84403636  0.65526634    -0.39300
O1475       O  0.16733443  0.99045234  0.61787228    -0.40000
O1476       O  0.12580325  0.97219247  0.59187701    -0.40100
C1477       C  0.16410380  0.56865272  0.85848593    -0.12400
C1478       C  0.18487658  0.54657361  0.85915427     0.04700
C1479       C  0.20518284  0.54431321  0.89396175    -0.07600
C1480       C  0.20484143  0.56519653  0.92652951    -0.08400
C1481       C  0.18505459  0.58869491  0.92532786    -0.02900
C1482       C  0.16406993  0.58986593  0.89068561     0.03900
N1483       N  0.14365757  0.61287721  0.88521816     0.66400
H1484       H  0.14851175  0.57032888  0.83151623     0.15300
H1485       H  0.22066671  0.56332220  0.95316069     0.15000
N1486       N  0.22596006  0.52096590  0.89719300     0.74100
O1487       O  0.14917601  0.63296048  0.85791301    -0.39400
O1488       O  0.11753221  0.60882212  0.89774697    -0.39300
O1489       O  0.25156497  0.52608115  0.91269560    -0.40000
O1490       O  0.21759659  0.49461944  0.89043501    -0.40100
C1491       C  0.20713605  0.57794624  0.65878136    -0.12400
C1492       C  0.18578873  0.55492691  0.66107846     0.04700
C1493       C  0.16427832  0.55317445  0.62727803    -0.07600
C1494       C  0.16621405  0.57215832  0.59101953    -0.08400
C1495       C  0.18897616  0.59384950  0.58653339    -0.02900
C1496       C  0.20803529  0.59824670  0.62350623     0.03900
N1497       N  0.22686197  0.62390962  0.62811487     0.66400
H1498       H  0.22264098  0.58093088  0.68566146     0.15300
H1499       H  0.14992082  0.56913817  0.56518258     0.15000
N1500       N  0.14094219  0.53128337  0.62794348     0.74100
O1501       O  0.21520733  0.64875983  0.63045942    -0.39400
O1502       O  0.25274254  0.62116083  0.64328095    -0.39300
O1503       O  0.11443871  0.53901148  0.62488803    -0.40000
O1504       O  0.14677145  0.50429961  0.62573243    -0.40100
O1505       O  0.65851486  0.02651321  0.29332288    -0.73000
O1506       O  0.64895509  0.46269698  0.20831202    -0.74000
O1507       O  0.65365790  0.46336366  0.30054086    -0.62600
O1508       O  0.65583540  0.02607435  0.20094205    -0.71000
O1509       O  0.70448578  0.02440364  0.20126760    -0.70600
O1510       O  0.70206303  0.46056500  0.29566270    -0.61800
O1511       O  0.69782752  0.46228465  0.20425483    -0.74400
O1512       O  0.70733532  0.02244514  0.29323836    -0.73100
Cu1513     Cu  0.65309733  0.99510884  0.24954654     1.04600
Cu1514     Cu  0.70341537  0.49273595  0.24882941     1.04300
C1515       C  0.68415818  0.03357737  0.30799993     0.93200
C1516       C  0.67230327  0.45238781  0.19285310     0.92300
C1517       C  0.67800446  0.45221453  0.31368434     0.84500
C1518       C  0.68056801  0.03527435  0.18588163     0.90700
C1519       C  0.69775934  0.11081329  0.45375473     0.86400
C1520       C  0.67765165  0.13688851  0.45752512    -0.53800
C1521       C  0.68380672  0.15515926  0.99211873     0.09300
C1522       C  0.70950859  0.14427368  0.02223259     0.20300
C1523       C  0.72885218  0.12344152  0.45568992    -0.54600
C1524       C  0.73633168  0.14180801  0.99106931     0.09400
C1525       C  0.69360620  0.09400572  0.49710002    -0.54100
C1526       C  0.69985042  0.11195976  0.03444416     0.10000
H1527       H  0.65815583  0.13969420  0.43735055     0.14500
H1528       H  0.71386259  0.15922928  0.04973864     0.00300
H1529       H  0.74533262  0.11634334  0.43372175     0.14800
H1530       H  0.68694687  0.07276873  0.99938853     0.14600
C1531       C  0.69474150  0.37346392  0.05710723     0.86400
C1532       C  0.67996301  0.34347373  0.05146772    -0.53800
C1533       C  0.68664729  0.33099101  0.51057479     0.09300
C1534       C  0.70875880  0.34831603  0.48114710     0.20300
C1535       C  0.72799878  0.36846464  0.05729316    -0.54600
C1536       C  0.73511516  0.35629446  0.51225952     0.09400
C1537       C  0.68934659  0.38995197  0.01341393    -0.54100
C1538       C  0.69342848  0.37795196  0.46988829     0.10000
H1539       H  0.66175811  0.33602845  0.07145839     0.14500
H1540       H  0.71556842  0.33513691  0.45349836     0.00300
H1541       H  0.74310585  0.37933152  0.08016776     0.14800
H1542       H  0.67631235  0.41359567  0.50702760     0.14600
O1543       O  0.79075105  0.03997932  0.28852517    -0.73000
O1544       O  0.79131916  0.47336352  0.20580163    -0.74000
O1545       O  0.78769035  0.47910551  0.29743844    -0.62600
O1546       O  0.79509853  0.03538227  0.19769013    -0.71000
O1547       O  0.84406598  0.03635478  0.20469150    -0.70600
O1548       O  0.83680548  0.47874969  0.30041561    -0.61800
O1549       O  0.84017070  0.47701268  0.20810855    -0.74400
O1550       O  0.83927500  0.03773926  0.29630900    -0.73100
Cu1551     Cu  0.78778935  0.50715868  0.24925895     1.04600
Cu1552     Cu  0.84012341  0.50905654  0.25402998     1.04300
C1553       C  0.81485879  0.04908419  0.30690288     0.93200
C1554       C  0.81636050  0.46528521  0.19214104     0.92300
C1555       C  0.81169008  0.47030541  0.31438488     0.84500
C1556       C  0.82043193  0.04484654  0.18606385     0.90700
C1557       C  0.81000923  0.12247774  0.03984515     0.86400
C1558       C  0.82480754  0.15322013  0.03923372    -0.53800
C1559       C  0.81590820  0.16824449  0.50260332     0.09300
C1560       C  0.79299182  0.15175753  0.47211408     0.20300
C1561       C  0.77726740  0.12865226  0.03773958    -0.54600
C1562       C  0.76717896  0.14314324  0.50291827     0.09400
C1563       C  0.81740186  0.10903850  0.99625279    -0.54100
C1564       C  0.80820704  0.12240156  0.46072198     0.10000
H1565       H  0.84241510  0.16039515  0.06115523     0.14500
H1566       H  0.78599975  0.16484438  0.44337400     0.00300
H1567       H  0.76180850  0.11776599  0.05866807     0.14800
H1568       H  0.82658782  0.08612170  0.49613482     0.14600
C1569       C  0.80139704  0.39198173  0.46071498     0.86400
C1570       C  0.82062344  0.36477118  0.46052486    -0.53800
C1571       C  0.81782245  0.34409681  0.99505951     0.09300
C1572       C  0.79759983  0.35696464  0.03066277     0.20300
C1573       C  0.77021991  0.37988605  0.46454491    -0.54600
C1574       C  0.76766088  0.36179076  0.00646469     0.09400
C1575       C  0.80907484  0.40662488  0.50435820    -0.54100
C1576       C  0.81068024  0.38876949  0.04005853     0.10000
H1577       H  0.83887452  0.36215321  0.43938065     0.14500
H1578       H  0.79505145  0.34209984  0.05872993     0.00300
H1579       H  0.75236402  0.38754519  0.44419884     0.14800
H1580       H  0.82053682  0.42744712  0.00094639     0.14600
O1581       O  0.96478409  0.16312874  0.29445307    -0.73000
O1582       O  0.52842699  0.15976764  0.20760679    -0.74000
O1583       O  0.52695297  0.16208305  0.29941651    -0.62600
O1584       O  0.96702377  0.16218974  0.20220170    -0.71000
O1585       O  0.96968972  0.21094145  0.20254844    -0.70600
O1586       O  0.52921238  0.21090722  0.29747487    -0.61800
O1587       O  0.53066949  0.20876777  0.20577406    -0.74400
O1588       O  0.96798369  0.21208084  0.29337217    -0.73100
Cu1589     Cu  0.99716781  0.15949010  0.25327890     1.04600
Cu1590     Cu  0.00014756  0.21177307  0.25183928     1.04300
C1591       C  0.95622777  0.18808735  0.30708163     0.93200
C1592       C  0.53914181  0.18382718  0.19269894     0.92300
C1593       C  0.53760568  0.18658529  0.31427961     0.84500
C1594       C  0.95863500  0.18703825  0.18665179     0.90700
C1595       C  0.61817133  0.18551171  0.04919706     0.86400
C1596       C  0.64513380  0.16690975  0.04269610    -0.53800
C1597       C  0.66028400  0.17333353  0.50699915     0.09300
C1598       C  0.64585038  0.19781696  0.47855150     0.20300
C1599       C  0.63002377  0.21735753  0.04633365    -0.54600
C1600       C  0.64511882  0.22466171  0.50958325     0.07400
C1601       C  0.59918942  0.18037612  0.00753187    -0.54100
C1602       C  0.61296106  0.18803496  0.47185807     0.10000
H1603       H  0.65119535  0.14815261  0.06226401     0.14500
H1604       H  0.65741629  0.20248246  0.44782575     0.00300
H1605       H  0.62478434  0.23351609  0.07002264     0.14800
H1606       H  0.57718111  0.17357465  0.51135515     0.14600
C1607       C  0.87793587  0.20619203  0.44540952     0.86400
C1608       C  0.84942338  0.18857724  0.45011353    -0.53800
C1609       C  0.83836941  0.19298617  0.98974751     0.09300
C1610       C  0.85532322  0.21568908  0.01981384     0.20300
C1611       C  0.86988949  0.23816362  0.45141491    -0.54600
C1612       C  0.86102766  0.24333743  0.98984896     0.09400
C1613       C  0.89701189  0.19933387  0.48643715    -0.54100
C1614       C  0.88618025  0.20207085  0.02791266     0.10000
H1615       H  0.84245625  0.17171868  0.42698413     0.14500
H1616       H  0.84347625  0.22064488  0.04984855     0.00300
H1617       H  0.87742736  0.25566240  0.43024973     0.14800
H1618       H  0.92252118  0.19020481  0.98920007     0.14600
O1619       O  0.53568018  0.28557631  0.20023372    -0.73000
O1620       O  0.97354532  0.28399105  0.30021227    -0.74000
O1621       O  0.97125758  0.28625197  0.20727106    -0.62600
O1622       O  0.53744654  0.28470881  0.29118123    -0.71000
O1623       O  0.53927647  0.33372370  0.29088195    -0.70600
O1624       O  0.97371664  0.33523844  0.20879247    -0.61800
O1625       O  0.97541025  0.33280962  0.30084370    -0.74400
O1626       O  0.53683410  0.33437267  0.19893947    -0.73100
Cu1627     Cu  0.00325215  0.28246881  0.25140141     1.04600
Cu1628     Cu  0.00567773  0.33478629  0.25207016     1.04300
C1629       C  0.54588094  0.30981651  0.18440981     0.93200
C1630       C  0.96541889  0.30829516  0.31646850     0.92300
C1631       C  0.96334327  0.31131885  0.19289890     0.84500
C1632       C  0.54848159  0.30912870  0.30478426     0.90700
C1633       C  0.62535581  0.29368009  0.44887839     0.86400
C1634       C  0.65373125  0.31113319  0.45579448    -0.53800
C1635       C  0.66773030  0.30617878  0.99857211     0.09300
C1636       C  0.64996408  0.28325850  0.02633729     0.20300
C1637       C  0.63303390  0.26171616  0.45599721    -0.54600
C1638       C  0.64472681  0.25621754  0.99568008     0.09400
C1639       C  0.60569307  0.30037948  0.48797803    -0.54100
C1640       C  0.61912885  0.29701314  0.03111022     0.10000
H1641       H  0.66098592  0.32805470  0.43302849     0.14500
H1642       H  0.66117155  0.27775394  0.05750810     0.00300
H1643       H  0.62527787  0.24435409  0.43454047     0.14800
H1644       H  0.58381222  0.30960511  0.98823375     0.14600
C1645       C  0.88881022  0.31438782  0.04172714     0.86400
C1646       C  0.86013525  0.33076730  0.03982583    -0.53800
C1647       C  0.84099972  0.32595836  0.50527238     0.09300
C1648       C  0.85458476  0.30265679  0.47446804     0.20300
C1649       C  0.87841024  0.28197840  0.03905989    -0.54600
C1650       C  0.85794618  0.27495636  0.50427937     0.09400
C1651       C  0.90440398  0.32107572  0.99893709    -0.54100
C1652       C  0.88697291  0.31351403  0.46611020     0.10000
H1653       H  0.85287490  0.34558099  0.06425008     0.14500
H1654       H  0.84144036  0.29841857  0.44432370     0.00300
H1655       H  0.88631885  0.26548141  0.06137068     0.14800
H1656       H  0.92498185  0.32643064  0.50426984     0.14600
C1657       C  0.92104702  0.32765035  0.35375774    -0.12400
C1658       C  0.94453912  0.30808007  0.35385848     0.04700
C1659       C  0.94739598  0.28853750  0.38967326    -0.07600
C1660       C  0.92772289  0.28998185  0.42459761    -0.08400
C1661       C  0.90439965  0.31001383  0.42488193    -0.02900
C1662       C  0.90098963  0.32836651  0.38811392     0.03900
N1663       N  0.87721579  0.34801485  0.38469849     0.66400
H1664       H  0.91794081  0.34238824  0.32637975     0.15300
H1665       H  0.93114527  0.27573945  0.45246499     0.15000
N1666       N  0.97103907  0.26816975  0.39235475     0.74100
O1667       O  0.88228250  0.37515815  0.39085737    -0.39400
O1668       O  0.85432147  0.33979199  0.36371098    -0.39300
O1669       O  0.99739057  0.27722729  0.38808210    -0.40000
O1670       O  0.96599565  0.24186702  0.40418851    -0.40100
C1671       C  0.92325540  0.33513831  0.15207049    -0.12400
C1672       C  0.94411583  0.31297408  0.15503705     0.04700
C1673       C  0.95030117  0.29634791  0.11846628    -0.07600
C1674       C  0.93332263  0.29950482  0.08141537    -0.08400
C1675       C  0.90984181  0.31895867  0.07963880    -0.02900
C1676       C  0.90689967  0.33938152  0.11373895     0.03900
N1677       N  0.89134715  0.36633327  0.10828869     0.66400
H1678       H  0.92095756  0.35018799  0.17879456     0.15300
H1679       H  0.93766532  0.28542127  0.05416293     0.15000
N1680       N  0.97464094  0.27713734  0.11750446     0.74100
O1681       O  0.87848178  0.37738200  0.13992478    -0.39400
O1682       O  0.89510512  0.38177984  0.07459371    -0.39300
O1683       O  0.97219490  0.25212110  0.13517303    -0.40000
O1684       O  0.99435184  0.28170269  0.08982774    -0.40100
C1685       C  0.59207889  0.28608787  0.33591791    -0.12400
C1686       C  0.57185014  0.30872904  0.33727279     0.04700
C1687       C  0.57434582  0.33037283  0.36959734    -0.07600
C1688       C  0.59471419  0.32671443  0.40311900    -0.08400
C1689       C  0.61148804  0.30118081  0.40570667    -0.02900
C1690       C  0.61315655  0.28300916  0.36880213     0.03900
N1691       N  0.63680265  0.26301173  0.36288404     0.66400
H1692       H  0.59171902  0.27107153  0.30880218     0.15300
H1693       H  0.59544575  0.34252231  0.42926751     0.15000
N1694       N  0.55460181  0.35444275  0.37127088     0.74100
O1695       O  0.63230068  0.23935802  0.34220560    -0.39400
O1696       O  0.66290209  0.27052666  0.37384369    -0.39300
O1697       O  0.52760048  0.34950251  0.37839779    -0.40000
O1698       O  0.56481355  0.38057911  0.37236955    -0.40100
C1699       C  0.56533650  0.32881791  0.11343525    -0.12400
C1700       C  0.56780333  0.30907997  0.14844340     0.04700
C1701       C  0.59045297  0.28811510  0.14741200    -0.07600
C1702       C  0.60816599  0.28601399  0.11042615    -0.08400
C1703       C  0.60370089  0.30367887  0.07332211    -0.02900
C1704       C  0.58328145  0.32690155  0.07667927     0.03900
N1705       N  0.58160093  0.34978318  0.04439534     0.66400
H1706       H  0.54914843  0.34591672  0.11458996     0.15300
H1707       H  0.62581731  0.27062142  0.11137795     0.15000
N1708       N  0.59638044  0.26931409  0.18403650     0.74100
O1709       O  0.55710609  0.36093672  0.03461794    -0.39400
O1710       O  0.59576834  0.35909459  0.52176777    -0.39300
O1711       O  0.60484833  0.24335846  0.17845693    -0.40000
O1712       O  0.59672491  0.27968405  0.22184018    -0.40100
C1713       C  0.93826508  0.16853384  0.11506240    -0.12400
C1714       C  0.93657255  0.18849910  0.14934702     0.04700
C1715       C  0.91469410  0.21035942  0.14616075    -0.07600
C1716       C  0.89720440  0.21306961  0.10775713    -0.08400
C1717       C  0.90096120  0.19496026  0.07160224    -0.02900
C1718       C  0.92048391  0.17101724  0.07706526     0.03900
N1719       N  0.92128378  0.14797539  0.04555676     0.66400
H1720       H  0.95376084  0.15081168  0.11774261     0.15300
H1721       H  0.88040316  0.22944543  0.10655066     0.15000
N1722       N  0.90933830  0.22951841  0.18187406     0.74100
O1723       O  0.94521288  0.13556197  0.03799588    -0.39400
O1724       O  0.89746218  0.13704853  0.03015705    -0.39300
O1725       O  0.90003699  0.25515058  0.17501963    -0.40000
O1726       O  0.91011039  0.21965873  0.22016606    -0.40100
C1727       C  0.91312859  0.21264818  0.33474176    -0.12400
C1728       C  0.93284810  0.18950491  0.33829336     0.04700
C1729       C  0.92995337  0.16847815  0.37169677    -0.07600
C1730       C  0.90955277  0.17303189  0.40362461    -0.08400
C1731       C  0.89284323  0.19867394  0.40378316    -0.02900
C1732       C  0.89194793  0.21658777  0.36604835     0.03900
N1733       N  0.86877897  0.23699016  0.35740315     0.66400
H1734       H  0.91389456  0.22736164  0.30700393     0.15300
H1735       H  0.90873125  0.15769050  0.43054276     0.15000
N1736       N  0.94917944  0.14398459  0.37603705     0.74100
O1737       O  0.87391265  0.26032518  0.33603703    -0.39400
O1738       O  0.84242430  0.22991512  0.36606645    -0.39300
O1739       O  0.97668634  0.14847934  0.38026669    -0.40000
O1740       O  0.93845638  0.11847447  0.38299579    -0.40100
C1741       C  0.55464954  0.20833600  0.38465832    -0.12400
C1742       C  0.55879753  0.18735026  0.35239814     0.04700
C1743       C  0.58203124  0.16730099  0.35847112    -0.07600
C1744       C  0.59978450  0.16843229  0.39689563    -0.08400
C1745       C  0.59499484  0.18890579  0.42990284    -0.02900
C1746       C  0.57170463  0.20896053  0.42329004     0.03900
N1747       N  0.56442094  0.22998331  0.45547895     0.66400
H1748       H  0.53686492  0.22370108  0.38076770     0.15300
H1749       H  0.61717731  0.15285057  0.40118470     0.15000
N1750       N  0.58840269  0.14620311  0.32571994     0.74100
O1751       O  0.55224292  0.22100763  0.48959712    -0.39400
O1752       O  0.56136362  0.25653466  0.44426364    -0.39300
O1753       O  0.58786244  0.15358026  0.28624017    -0.40000
O1754       O  0.59745787  0.12103886  0.33633276    -0.40100
C1755       C  0.58419655  0.16461962  0.15997059    -0.12400
C1756       C  0.55991002  0.18303080  0.15774597     0.04700
C1757       C  0.55507997  0.20061166  0.12123013    -0.07600
C1758       C  0.57458196  0.20021228  0.08797112    -0.08400
C1759       C  0.59935391  0.18227737  0.08901571    -0.02900
C1760       C  0.60463818  0.16462994  0.12645311     0.03900
N1761       N  0.63124578  0.14894482  0.13343290     0.66400
H1762       H  0.58806714  0.15137025  0.18875625     0.15300
H1763       H  0.57053477  0.21492743  0.06104226     0.15000
N1764       N  0.53025250  0.21911304  0.11713593     0.74100
O1765       O  0.65522106  0.16326966  0.13939880    -0.39400
O1766       O  0.62977763  0.12209876  0.14433975    -0.39300
O1767       O  0.53247970  0.24488185  0.13196292    -0.40000
O1768       O  0.51027088  0.21294524  0.08935498    -0.40100
C1769       C  0.80339949  0.41577921  0.15786187    -0.12400
C1770       C  0.81793582  0.44354425  0.15582305     0.04700
C1771       C  0.83523199  0.44984253  0.11931719    -0.07600
C1772       C  0.83505506  0.43016462  0.08431369    -0.08400
C1773       C  0.81764047  0.40379319  0.08365139    -0.02900
C1774       C  0.80463443  0.39528195  0.12340195     0.03900
N1775       N  0.79634297  0.36520515  0.13171611     0.66400
H1776       H  0.79236052  0.40938183  0.18736177     0.15300
H1777       H  0.84824393  0.43635893  0.05681534     0.15000
N1778       N  0.85190260  0.47700680  0.11602370     0.74100
O1779       O  0.81593976  0.34598344  0.13074968    -0.39400
O1780       O  0.77295541  0.35926300  0.15159918    -0.39300
O1781       O  0.87886622  0.47674785  0.10673083    -0.40000
O1782       O  0.83895251  0.50125710  0.11703995    -0.40100
C1783       C  0.81738333  0.40360974  0.38439938    -0.12400
C1784       C  0.80384974  0.41284173  0.42240427     0.04700
C1785       C  0.79128400  0.44122736  0.42285967    -0.07600
C1786       C  0.79485205  0.45991436  0.38734469    -0.08400
C1787       C  0.80999319  0.45076551  0.35120747    -0.02900
C1788       C  0.82136132  0.42257853  0.34955416     0.03900
N1789       N  0.83556243  0.41245510  0.31176241     0.66400
H1790       H  0.82377165  0.38127275  0.38027831     0.15300
H1791       H  0.78554161  0.48166615  0.38778138     0.15000
N1792       N  0.77476401  0.45151645  0.45859115     0.74100
O1793       O  0.86336188  0.41276261  0.31037662    -0.39400
O1794       O  0.82037333  0.40193264  0.28057773    -0.39300
O1795       O  0.78257138  0.47538611  0.47675111    -0.40000
O1796       O  0.74931380  0.44077919  0.46537197    -0.40100
C1797       C  0.79289088  0.11227894  0.38196483    -0.12400
C1798       C  0.81363877  0.10952160  0.41624802     0.04700
C1799       C  0.83775598  0.09067434  0.40947687    -0.07600
C1800       C  0.83756957  0.07178613  0.37355314    -0.08400
C1801       C  0.81475061  0.07175757  0.34223520    -0.02900
C1802       C  0.79292533  0.09336121  0.34570003     0.03900
N1803       N  0.77100308  0.09686993  0.31230635     0.66400
H1804       H  0.77597666  0.12852441  0.38357631     0.15300
H1805       H  0.85556816  0.05679421  0.37021097     0.15000
N1806       N  0.86329833  0.09131801  0.43776520     0.74100
O1807       O  0.74785406  0.08084028  0.31230695    -0.39400
O1808       O  0.77248921  0.11895563  0.28733244    -0.39300
O1809       O  0.87775470  0.06828735  0.44468698    -0.40000
O1810       O  0.87325949  0.11557950  0.45223387    -0.40100
C1811       C  0.80384357  0.05563841  0.11343695    -0.12400
C1812       C  0.82165647  0.06412682  0.14864967     0.04700
C1813       C  0.83916720  0.09018538  0.14698017    -0.07600
C1814       C  0.83660173  0.10847411  0.11050901    -0.08400
C1815       C  0.81678915  0.10112472  0.07624245    -0.02900
C1816       C  0.80150247  0.07336785  0.07718471     0.03900
N1817       N  0.78241215  0.06320951  0.04245315     0.66400
H1818       H  0.79124385  0.03497069  0.11421395     0.15300
H1819       H  0.84934818  0.12883088  0.11055306     0.15000
N1820       N  0.85825956  0.09920677  0.18248596     0.74100
O1821       O  0.75488643  0.06233113  0.04784931    -0.39400
O1822       O  0.79284806  0.04718333  0.01361520    -0.39300
O1823       O  0.88261964  0.11224531  0.17519428    -0.40000
O1824       O  0.84945280  0.09735834  0.22091610    -0.40100
C1825       C  0.66333007  0.41193955  0.42166470    -0.12400
C1826       C  0.68677943  0.39198679  0.42527174     0.04700
C1827       C  0.70392990  0.38872909  0.38747868    -0.07600
C1828       C  0.70084945  0.40870687  0.35220023    -0.08400
C1829       C  0.67881415  0.43001177  0.35050390    -0.02900
C1830       C  0.65878531  0.43015506  0.38500607     0.03900
N1831       N  0.63402032  0.44913421  0.38421202     0.66400
H1832       H  0.64780852  0.41338998  0.44763119     0.15300
H1833       H  0.71520723  0.40675354  0.32483885     0.15000
N1834       N  0.72273140  0.36423448  0.38204045     0.74100
O1835       O  0.61314137  0.44438839  0.35728194    -0.39400
O1836       O  0.62990380  0.46583407  0.41588431    -0.39300
O1837       O  0.71086716  0.33896547  0.37722782    -0.40000
O1838       O  0.74836195  0.36878448  0.36777989    -0.40100
C1839       C  0.68789280  0.40388521  0.17152868    -0.12400
C1840       C  0.67057017  0.42822669  0.16240208     0.04700
C1841       C  0.65552950  0.43049955  0.12251717    -0.07600
C1842       C  0.66149023  0.41029631  0.09047186    -0.08400
C1843       C  0.68327261  0.38891133  0.09664193    -0.02900
C1844       C  0.69346949  0.38304372  0.13975944     0.03900
N1845       N  0.70895007  0.35676711  0.15254956     0.66400
H1846       H  0.69766754  0.40166923  0.20367043     0.15300
H1847       H  0.64925464  0.41205508  0.06021966     0.15000
N1848       N  0.63643849  0.45447513  0.11251290     0.74100
O1849       O  0.71998191  0.35475247  0.19031329    -0.39400
O1850       O  0.70697451  0.33365129  0.13020046    -0.39300
O1851       O  0.63786071  0.46717806  0.07610638    -0.40000
O1852       O  0.61516693  0.45976545  0.13669866    -0.40100
C1853       C  0.67728137  0.08220674  0.33999120    -0.12400
C1854       C  0.68716370  0.05346341  0.34413251     0.04700
C1855       C  0.70214767  0.04440614  0.38175481    -0.07600
C1856       C  0.70520549  0.06349651  0.41625433    -0.08400
C1857       C  0.69358598  0.09188226  0.41405330    -0.02900
C1858       C  0.68226144  0.10232999  0.37358884     0.03900
N1859       N  0.67943142  0.13320453  0.36404549     0.66400
H1860       H  0.66799051  0.08954891  0.30927600     0.15300
H1861       H  0.71717713  0.05606125  0.44483909     0.15000
N1862       N  0.71484706  0.01598532  0.38503204     0.74100
O1863       O  0.70039249  0.15101390  0.37359848    -0.39400
O1864       O  0.65929833  0.14165478  0.33837152    -0.39300
O1865       O  0.74239526  0.01370157  0.38232836    -0.40000
O1866       O  0.69918729  0.99388728  0.39592620    -0.40100
C1867       C  0.70666255  0.07833592  0.15009647    -0.12400
C1868       C  0.68214667  0.05863476  0.15060523     0.04700
C1869       C  0.66078525  0.06138542  0.11660542    -0.07600
C1870       C  0.66674527  0.08021361  0.08098477    -0.08400
C1871       C  0.69240794  0.09848756  0.07871908    -0.02900
C1872       C  0.71110332  0.09925846  0.11638744     0.03900
N1873       N  0.73356969  0.12165290  0.12292163     0.66400
H1874       H  0.72216224  0.07815596  0.17727563     0.15300
H1875       H  0.65083291  0.08063697  0.05433980     0.15000
N1876       N  0.63309147  0.04527527  0.11690230     0.74100
O1877       O  0.72642787  0.14831836  0.12268161    -0.39400
O1878       O  0.75789801  0.11493327  0.14053613    -0.39300
O1879       O  0.61612246  0.04810021  0.14835781    -0.40000
O1880       O  0.62253306  0.03466724  0.08203926    -0.40100
O1881       O  0.66125077  0.02436085  0.79584750    -0.73000
O1882       O  0.66353412  0.46064528  0.71243794    -0.74000
O1883       O  0.66379844  0.45975081  0.80497861    -0.62600
O1884       O  0.66053723  0.02492105  0.70318074    -0.71000
O1885       O  0.70937565  0.02519683  0.70587800    -0.70600
O1886       O  0.71261080  0.45928465  0.80397499    -0.61800
O1887       O  0.71257554  0.46389712  0.71168199    -0.74400
O1888       O  0.71017528  0.02127115  0.79814533    -0.73100
Cu1889     Cu  0.65764761  0.99345789  0.75092292     1.04600
Cu1890     Cu  0.71419568  0.49272097  0.75880765     1.04300
C1891       C  0.68641995  0.03167259  0.81209508     0.93200
C1892       C  0.68807623  0.45374710  0.69650920     0.92300
C1893       C  0.68820456  0.44980277  0.81990051     0.84500
C1894       C  0.68532607  0.03468614  0.68890650     0.90700
C1895       C  0.69883247  0.11206400  0.95419217     0.86400
C1896       C  0.67848022  0.13799527  0.95706910    -0.53800
C1897       C  0.68342880  0.15374319  0.49281221     0.09300
C1898       C  0.70903345  0.14231530  0.52233759     0.20300
C1899       C  0.72983389  0.12497861  0.95622027    -0.54600
C1900       C  0.73551426  0.13995003  0.49077957     0.09400
C1901       C  0.69456145  0.09564114  0.99782894    -0.54100
C1902       C  0.69908565  0.10999262  0.53407507     0.10000
H1903       H  0.65880312  0.14027021  0.93701242     0.14500
H1904       H  0.71390471  0.15698401  0.54997208     0.00300
H1905       H  0.74648477  0.11753902  0.93483180     0.14800
H1906       H  0.68622970  0.07107382  0.49811121     0.14600
C1907       C  0.69400882  0.37633411  0.55028993     0.86400
C1908       C  0.67925581  0.34577352  0.54662690    -0.53800
C1909       C  0.68852687  0.32865824  0.01635192     0.09300
C1910       C  0.71173826  0.34594220  0.98895947     0.20300
C1911       C  0.72683487  0.37026845  0.54810439    -0.54600
C1912       C  0.73744946  0.35445088  0.02149016     0.09400
C1913       C  0.68613190  0.39204796  0.50716080    -0.54100
C1914       C  0.69688728  0.37553207  0.97660077     0.10000
H1915       H  0.66245935  0.33682337  0.56729104     0.14500
H1916       H  0.71946945  0.33268283  0.96195221     0.00300
H1917       H  0.74290143  0.38048428  0.56992231     0.14800
H1918       H  0.68242281  0.41257129  0.01200639     0.14600
O1919       O  0.78946959  0.04031399  0.79147538    -0.73000
O1920       O  0.78536392  0.47412093  0.70748737    -0.74000
O1921       O  0.78130438  0.47895128  0.79916806    -0.62600
O1922       O  0.79228612  0.03626351  0.70058023    -0.71000
O1923       O  0.84134121  0.03700438  0.70621924    -0.70600
O1924       O  0.83031418  0.47724078  0.80272490    -0.61800
O1925       O  0.83423635  0.47562938  0.71099965    -0.74400
O1926       O  0.83804802  0.03822640  0.79764094    -0.73100
Cu1927     Cu  0.78296037  0.50776724  0.75151795     1.04600
Cu1928     Cu  0.83526065  0.50755611  0.75727970     1.04300
C1929       C  0.81381898  0.04970008  0.80880637     0.93200
C1930       C  0.81014112  0.46498507  0.69429755     0.92300
C1931       C  0.80495209  0.46885092  0.81561437     0.84500
C1932       C  0.81751076  0.04572455  0.68848970     0.90700
C1933       C  0.80885291  0.12159380  0.54024364     0.86400
C1934       C  0.82388766  0.15222102  0.53832133    -0.53800
C1935       C  0.81704594  0.16982739  0.00404321     0.09300
C1936       C  0.79405260  0.15384740  0.97295399     0.20300
C1937       C  0.77620947  0.12791744  0.53800426    -0.54600
C1938       C  0.76814832  0.14466915  0.00342013     0.09400
C1939       C  0.81614582  0.10728701  0.49716180    -0.54100
C1940       C  0.80929007  0.12469640  0.96044905     0.10000
H1941       H  0.84153064  0.15973437  0.55996718     0.14500
H1942       H  0.78705867  0.16742047  0.94471207     0.00300
H1943       H  0.76073951  0.11776852  0.55981749     0.14800
H1944       H  0.82810024  0.08802754  0.99433146     0.14600
C1945       C  0.80124792  0.38928306  0.96100697     0.86400
C1946       C  0.81909687  0.36115982  0.95897924    -0.53800
C1947       C  0.81694802  0.34641949  0.49473672     0.09300
C1948       C  0.79399568  0.35757976  0.52756681     0.20300
C1949       C  0.77036101  0.37869165  0.97070244    -0.54600
C1950       C  0.76576313  0.36186100  0.49879934     0.09400
C1951       C  0.81275147  0.40473115  0.00228215    -0.54100
C1952       C  0.80516169  0.38944788  0.54062842     0.10000
H1953       H  0.83521920  0.35701578  0.93481947     0.14500
H1954       H  0.79029086  0.34198889  0.55451352     0.00300
H1955       H  0.75172589  0.38586442  0.95185063     0.14800
H1956       H  0.81640143  0.42951468  0.50584475     0.14600
O1957       O  0.96388510  0.16389138  0.78937256    -0.73000
O1958       O  0.52762387  0.15931474  0.70607627    -0.74000
O1959       O  0.52611319  0.16062682  0.79792032    -0.62600
O1960       O  0.96646778  0.16387213  0.69707227    -0.71000
O1961       O  0.96754912  0.21264782  0.69840146    -0.70600
O1962       O  0.52834724  0.20942331  0.79600734    -0.61800
O1963       O  0.52904532  0.20832773  0.70450361    -0.74400
O1964       O  0.96511113  0.21294026  0.78896680    -0.73100
Cu1965     Cu  0.99637462  0.16174181  0.74813471     1.04600
Cu1966     Cu  0.99757401  0.21410835  0.74782266     1.04300
C1967       C  0.95463873  0.18839863  0.80273772     0.93200
C1968       C  0.53806617  0.18359698  0.69144793     0.92300
C1969       C  0.53692398  0.18510037  0.81263292     0.84500
C1970       C  0.95733613  0.18856741  0.68208009     0.90700
C1971       C  0.61959249  0.18628626  0.55108508     0.86400
C1972       C  0.64646823  0.16749912  0.54481440    -0.53800
C1973       C  0.65977988  0.17389754  0.00591690     0.09300
C1974       C  0.64512683  0.19838134  0.97756305     0.20300
C1975       C  0.63218129  0.21789840  0.54749483    -0.54600
C1976       C  0.64344939  0.22474916  0.00904246     0.07400
C1977       C  0.60008196  0.18113840  0.50997045    -0.54100
C1978       C  0.61244480  0.18797032  0.96991915     0.10000
H1979       H  0.65425904  0.15060273  0.56652993     0.14500
H1980       H  0.65690043  0.20367314  0.94721324     0.00300
H1981       H  0.62787823  0.23439965  0.57122405     0.14800
H1982       H  0.57630441  0.17264268  0.00810021     0.14600
C1983       C  0.88157767  0.20429133  0.94797739     0.86400
C1984       C  0.85239551  0.18784802  0.95240582    -0.53800
C1985       C  0.83579992  0.19257602  0.48811795     0.09300
C1986       C  0.85221271  0.21552443  0.51832413     0.20300
C1987       C  0.87462473  0.23665441  0.95276576    -0.54600
C1988       C  0.85666995  0.24382625  0.48921933     0.09400
C1989       C  0.89988960  0.19729466  0.98972012    -0.54100
C1990       C  0.88358620  0.20296272  0.52516285     0.10000
H1991       H  0.84495219  0.17117305  0.92931958     0.14500
H1992       H  0.84046536  0.21957164  0.54875571     0.00300
H1993       H  0.88231555  0.25344306  0.93043795     0.14800
H1994       H  0.91975787  0.19267499  0.48467223     0.14600
O1995       O  0.53766129  0.28512811  0.70094763    -0.73000
O1996       O  0.97765516  0.28588844  0.79918315    -0.74000
O1997       O  0.97474805  0.28571112  0.70675093    -0.62600
O1998       O  0.53942636  0.28565978  0.79236766    -0.71000
O1999       O  0.54013917  0.33468679  0.79093943    -0.70600
O2000       O  0.97513644  0.33471635  0.70620584    -0.61800
O2001       O  0.97758281  0.33468196  0.79798074    -0.74400
O2002       O  0.53775692  0.33391616  0.69833087    -0.73100
Cu2003     Cu  0.00736056  0.28444205  0.75050028     1.04600
Cu2004     Cu  0.00767153  0.33674366  0.74885098     1.04300
C2005       C  0.54707726  0.30937653  0.68411953     0.93200
C2006       C  0.96832365  0.31008225  0.81425199     0.92300
C2007       C  0.96512564  0.31009508  0.69218525     0.84500
C2008       C  0.54978999  0.31044089  0.80565175     0.90700
C2009       C  0.62566649  0.29603948  0.95176154     0.86400
C2010       C  0.65470791  0.31227068  0.95980574    -0.53800
C2011       C  0.66682065  0.30690221  0.49494149     0.09300
C2012       C  0.64999951  0.28394799  0.52408333     0.20300
C2013       C  0.63231533  0.26351254  0.95698321    -0.54600
C2014       C  0.64582687  0.25588248  0.49490918     0.09400
C2015       C  0.60635878  0.30239987  0.99144911    -0.54100
C2016       C  0.61847057  0.29646517  0.52810177     0.10000
H2017       H  0.66257161  0.32962942  0.93825143     0.14500
H2018       H  0.66153374  0.27969004  0.55542020     0.00300
H2019       H  0.62495496  0.24701524  0.93376320     0.14800
H2020       H  0.58292482  0.30661688  0.48358663     0.14600
C2021       C  0.88472242  0.31307968  0.54576789     0.86400
C2022       C  0.85680777  0.33074163  0.54225347    -0.53800
C2023       C  0.84337587  0.32502237  0.00399767     0.09300
C2024       C  0.85702277  0.30184911  0.97284023     0.20300
C2025       C  0.87330957  0.28115367  0.54126426    -0.54600
C2026       C  0.86213542  0.27476150  0.00331735     0.09400
C2027       C  0.90175723  0.31981524  0.50383685    -0.54100
C2028       C  0.88882561  0.31379371  0.96234808     0.10000
H2029       H  0.84936802  0.34621462  0.56551991     0.14500
H2030       H  0.84327841  0.29669972  0.94356559     0.00300
H2031       H  0.88023658  0.26417194  0.56332661     0.14800
H2032       H  0.92743215  0.32833330  0.99796829     0.14600
C2033       C  0.92296752  0.32869064  0.85051915    -0.12400
C2034       C  0.94687058  0.30949080  0.85098844     0.04700
C2035       C  0.94944344  0.28956969  0.88638076    -0.07600
C2036       C  0.92930045  0.29039716  0.92068009    -0.08400
C2037       C  0.90572399  0.31011126  0.92080292    -0.02900
C2038       C  0.90243400  0.32882519  0.88441136     0.03900
N2039       N  0.87838366  0.34826220  0.88112810     0.66400
H2040       H  0.92001747  0.34364822  0.82337004     0.15300
H2041       H  0.93273604  0.27610253  0.94849026     0.15000
N2042       N  0.97329128  0.26943793  0.88939025     0.74100
O2043       O  0.88216848  0.37475633  0.89255777    -0.39400
O2044       O  0.85656155  0.34115237  0.85705542    -0.39300
O2045       O  0.99961363  0.27878601  0.88586138    -0.40000
O2046       O  0.96838010  0.24302684  0.90082153    -0.40100
C2047       C  0.92028982  0.32985092  0.65820740    -0.12400
C2048       C  0.94349922  0.31024560  0.65699556     0.04700
C2049       C  0.94854097  0.29459876  0.61919575    -0.07600
C2050       C  0.92932779  0.29711024  0.58434273    -0.08400
C2051       C  0.90509996  0.31574928  0.58515083    -0.02900
C2052       C  0.90141614  0.33349497  0.62232973     0.03900
N2053       N  0.88110689  0.35696969  0.62364396     0.66400
H2054       H  0.91766305  0.34342721  0.68653110     0.15300
H2055       H  0.93331447  0.28389197  0.55603560     0.15000
N2056       N  0.97408393  0.27739371  0.61450641     0.74100
O2057       O  0.86303904  0.35794317  0.65409273    -0.39400
O2058       O  0.88588359  0.37981862  0.60104030    -0.39300
O2059       O  0.97526834  0.25286998  0.63364058    -0.40000
O2060       O  0.99112816  0.28290565  0.58354175    -0.40100
C2061       C  0.59546528  0.29096450  0.83653629    -0.12400
C2062       C  0.57266784  0.31094565  0.83908091     0.04700
C2063       C  0.57199393  0.33089339  0.87363005    -0.07600
C2064       C  0.59239558  0.32821365  0.90747073    -0.08400
C2065       C  0.61201592  0.30474167  0.90863240    -0.02900
C2066       C  0.61619454  0.28856074  0.87024672     0.03900
N2067       N  0.64138180  0.27044608  0.86455207     0.66400
H2068       H  0.59716306  0.27737288  0.80804597     0.15300
H2069       H  0.59107979  0.34302190  0.93463969     0.15000
N2070       N  0.54903548  0.35182758  0.87709656     0.74100
O2071       O  0.63929168  0.24777126  0.84112736    -0.39400
O2072       O  0.66652574  0.27890069  0.87860638    -0.39300
O2073       O  0.52247501  0.34295115  0.87922288    -0.40000
O2074       O  0.55555154  0.37850874  0.88485137    -0.40100
C2075       C  0.56240827  0.32596770  0.60979312    -0.12400
C2076       C  0.56791496  0.30872027  0.64677835     0.04700
C2077       C  0.59219944  0.28983295  0.64624063    -0.07600
C2078       C  0.60922757  0.28742792  0.60863560    -0.08400
C2079       C  0.60246929  0.30295805  0.57008011    -0.02900
C2080       C  0.57948976  0.32387109  0.57215595     0.03900
N2081       N  0.57436863  0.34472605  0.53781410     0.66400
H2082       H  0.54454649  0.34135488  0.61014016     0.15300
H2083       H  0.62802371  0.27341163  0.61028360     0.15000
N2084       N  0.60040456  0.27350858  0.68419390     0.74100
O2085       O  0.54835694  0.35165106  0.52744732    -0.39400
O2086       O  0.60494889  0.36144475  0.02967280    -0.39300
O2087       O  0.60074599  0.24572788  0.68319456    -0.40000
O2088       O  0.61045856  0.28692819  0.71718762    -0.40100
C2089       C  0.93800518  0.17065314  0.60992086    -0.12400
C2090       C  0.93525616  0.18967978  0.64507057     0.04700
C2091       C  0.91213313  0.21021431  0.64324713    -0.07600
C2092       C  0.89410036  0.21247187  0.60543320    -0.08400
C2093       C  0.89894958  0.19569478  0.56826189    -0.02900
C2094       C  0.91991674  0.17293543  0.57230229     0.03900
N2095       N  0.92155720  0.15051697  0.54004016     0.66400
H2096       H  0.95450248  0.15381886  0.61167004     0.15300
H2097       H  0.87596489  0.22732732  0.60565566     0.15000
N2098       N  0.90605226  0.22840711  0.67974777     0.74100
O2099       O  0.94604334  0.13961016  0.53131437    -0.39400
O2100       O  0.89810965  0.13829330  0.52555061    -0.39300
O2101       O  0.89550522  0.25364306  0.67396693    -0.40000
O2102       O  0.90763437  0.21797870  0.71766999    -0.40100
C2103       C  0.91005538  0.20874520  0.83285608    -0.12400
C2104       C  0.93270176  0.18854863  0.83605322     0.04700
C2105       C  0.93499108  0.16974260  0.87213980    -0.07600
C2106       C  0.91626288  0.17345165  0.90644582    -0.08400
C2107       C  0.89611214  0.19650141  0.90613820    -0.02900
C2108       C  0.89063326  0.21194247  0.86674895     0.03900
N2109       N  0.86550108  0.23027337  0.86020257     0.66400
H2110       H  0.90740601  0.22191564  0.80374022     0.15300
H2111       H  0.91883776  0.15916209  0.93434881     0.15000
N2112       N  0.95807012  0.14890112  0.87636748     0.74100
O2113       O  0.86767800  0.25350081  0.83761820    -0.39400
O2114       O  0.84027628  0.22132169  0.87184628    -0.39300
O2115       O  0.98454207  0.15788521  0.88083485    -0.40000
O2116       O  0.95173111  0.12187064  0.88144857    -0.40100
C2117       C  0.55634187  0.20903016  0.88012828    -0.12400
C2118       C  0.55845175  0.18597624  0.85044174     0.04700
C2119       C  0.57982143  0.16424707  0.85901353    -0.07600
C2120       C  0.59766779  0.16591318  0.89732632    -0.08400
C2121       C  0.59492163  0.18865708  0.92764524    -0.02900
C2122       C  0.57342853  0.21030063  0.91868327     0.03900
N2123       N  0.56755546  0.23329650  0.94868523     0.66400
H2124       H  0.53987186  0.22559141  0.87449037     0.15300
H2125       H  0.61352726  0.14898517  0.90379008     0.15000
N2126       N  0.58424825  0.14082423  0.82896880     0.74100
O2127       O  0.55896164  0.22660659  0.98605188    -0.39400
O2128       O  0.56287493  0.25894690  0.93452845    -0.39300
O2129       O  0.58474778  0.14611270  0.78881751    -0.40000
O2130       O  0.59125905  0.11562234  0.84264765    -0.40100
C2131       C  0.58223651  0.16288018  0.65820520    -0.12400
C2132       C  0.55967158  0.18335916  0.65749823     0.04700
C2133       C  0.55724086  0.20338868  0.62324006    -0.07600
C2134       C  0.57777422  0.20376624  0.59128711    -0.08400
C2135       C  0.60056369  0.18340659  0.59063368    -0.02900
C2136       C  0.60261225  0.16239511  0.62476161     0.03900
N2137       N  0.62359677  0.13956908  0.62543540     0.66400
H2138       H  0.58374300  0.14692507  0.68438248     0.15300
H2139       H  0.57520372  0.21984987  0.56550829     0.15000
N2140       N  0.53250782  0.22187786  0.61824386     0.74100
O2141       O  0.64489696  0.14066419  0.65239190    -0.39400
O2142       O  0.61729815  0.11565171  0.60637410    -0.39300
O2143       O  0.53645524  0.24937977  0.62131617    -0.40000
O2144       O  0.50944517  0.21167011  0.59960172    -0.40100
C2145       C  0.79310882  0.41734858  0.65752099    -0.12400
C2146       C  0.81118771  0.44306712  0.65797985     0.04700
C2147       C  0.83114532  0.44715236  0.62392732    -0.07600
C2148       C  0.83085598  0.42737646  0.58903439    -0.08400
C2149       C  0.81059352  0.40317189  0.58564426    -0.02900
C2150       C  0.79372499  0.39665773  0.62315120     0.03900
N2151       N  0.77980751  0.36830111  0.62958182     0.66400
H2152       H  0.77936513  0.41264592  0.68511137     0.15300
H2153       H  0.84611343  0.43196359  0.56323040     0.15000
N2154       N  0.85062299  0.47250024  0.62262552     0.74100
O2155       O  0.79571859  0.34589465  0.63056147    -0.39400
O2156       O  0.75492740  0.36657024  0.64717318    -0.39300
O2157       O  0.87796671  0.46934604  0.61824973    -0.40000
O2158       O  0.84019151  0.49799496  0.62055142    -0.40100
C2159       C  0.81343482  0.40087030  0.88280399    -0.12400
C2160       C  0.80097228  0.40953327  0.92186630     0.04700
C2161       C  0.78685655  0.43711807  0.92323921    -0.07600
C2162       C  0.78806365  0.45591893  0.88761823    -0.08400
C2163       C  0.80299135  0.44791862  0.85076207    -0.02900
C2164       C  0.81537806  0.42011521  0.84781762     0.03900
N2165       N  0.82904832  0.41076123  0.80905180     0.66400
H2166       H  0.82138886  0.37910153  0.87836364     0.15300
H2167       H  0.77778881  0.47715628  0.88902019     0.15000
N2168       N  0.77118979  0.44646923  0.96030352     0.74100
O2169       O  0.85396501  0.42148563  0.79903256    -0.39400
O2170       O  0.81876768  0.38846216  0.78911673    -0.39300
O2171       O  0.78194113  0.46730347  0.98297316    -0.40000
O2172       O  0.74399231  0.44020042  0.96276666    -0.40100
C2173       C  0.79305273  0.11432741  0.88229420    -0.12400
C2174       C  0.81451282  0.11229942  0.91566810     0.04700
C2175       C  0.83886791  0.09393726  0.90820676    -0.07600
C2176       C  0.83800786  0.07426505  0.87311380    -0.08400
C2177       C  0.81424399  0.07308780  0.84326107    -0.02900
C2178       C  0.79229278  0.09464438  0.84688902     0.03900
N2179       N  0.76936124  0.09735391  0.81470462     0.66400
H2180       H  0.77605680  0.13046622  0.88421106     0.15300
H2181       H  0.85617093  0.05953601  0.86931090     0.15000
N2182       N  0.86509189  0.09569080  0.93516425     0.74100
O2183       O  0.74814692  0.07881456  0.81368397    -0.39400
O2184       O  0.76709399  0.12119917  0.79377914    -0.39300
O2185       O  0.88084160  0.07340263  0.94089337    -0.40000
O2186       O  0.87428373  0.12028831  0.94949529    -0.40100
C2187       C  0.80194397  0.05570391  0.61539345    -0.12400
C2188       C  0.81852722  0.06506965  0.65130241     0.04700
C2189       C  0.83507872  0.09175564  0.65033785    -0.07600
C2190       C  0.83329593  0.10944349  0.61312454    -0.08400
C2191       C  0.81508371  0.10092450  0.57761620    -0.02900
C2192       C  0.80017779  0.07294567  0.57862588     0.03900
N2193       N  0.78213742  0.06198195  0.54326063     0.66400
H2194       H  0.78991386  0.03469806  0.61598091     0.15300
H2195       H  0.84508207  0.13036230  0.61354763     0.15000
N2196       N  0.85227457  0.10196841  0.68721183     0.74100
O2197       O  0.75442858  0.06269910  0.54590003    -0.39400
O2198       O  0.79298079  0.04396882  0.51746357    -0.39300
O2199       O  0.87563114  0.11720799  0.68180402    -0.40000
O2200       O  0.84261585  0.09866867  0.72500808    -0.40100
C2201       C  0.67023178  0.41164958  0.92752269    -0.12400
C2202       C  0.69177439  0.38971729  0.93168864     0.04700
C2203       C  0.70875259  0.38465117  0.89417498    -0.07600
C2204       C  0.70797319  0.40482394  0.85884685    -0.08400
C2205       C  0.68818603  0.42817815  0.85710563    -0.02900
C2206       C  0.66825526  0.43046159  0.89127361     0.03900
N2207       N  0.64663542  0.45283809  0.89086391     0.66400
H2208       H  0.65469197  0.41481000  0.95306180     0.15300
H2209       H  0.72209145  0.40143159  0.83157183     0.15000
N2210       N  0.72516282  0.35839991  0.88938595     0.74100
O2211       O  0.61997478  0.44605375  0.88242622    -0.39400
O2212       O  0.65324211  0.47804235  0.90570767    -0.39300
O2213       O  0.71114280  0.33413913  0.88541322    -0.40000
O2214       O  0.75124863  0.36033331  0.87594348    -0.40100
C2215       C  0.66975282  0.40964730  0.65846936    -0.12400
C2216       C  0.68811644  0.43478970  0.65907675     0.04700
C2217       C  0.70611383  0.44166922  0.62377444    -0.07600
C2218       C  0.70571051  0.42269704  0.58888756    -0.08400
C2219       C  0.68867799  0.39622676  0.58854059    -0.02900
C2220       C  0.66986009  0.39016634  0.62384909     0.03900
N2221       N  0.64988416  0.36546834  0.62531842     0.66400
H2222       H  0.65547923  0.40482982  0.68548543     0.15300
H2223       H  0.71954344  0.42842156  0.56171145     0.15000
N2224       N  0.72438770  0.46801433  0.62221698     0.74100
O2225       O  0.62391071  0.36833792  0.61079573    -0.39400
O2226       O  0.65545616  0.34420889  0.65049479    -0.39300
O2227       O  0.74995855  0.46718805  0.60694014    -0.40000
O2228       O  0.71350948  0.49271700  0.62965334    -0.40100
C2229       C  0.67689539  0.07978241  0.84320351    -0.12400
C2230       C  0.68836447  0.05168735  0.84822247     0.04700
C2231       C  0.70505655  0.04437639  0.88540783    -0.07600
C2232       C  0.70825046  0.06477457  0.91832975    -0.08400
C2233       C  0.69509291  0.09238511  0.91525078    -0.02900
C2234       C  0.68183392  0.10103437  0.87520396     0.03900
N2235       N  0.67733377  0.13139674  0.86394241     0.66400
H2236       H  0.66649408  0.08591390  0.81264574     0.15300
H2237       H  0.72106184  0.05883580  0.94693740     0.15000
N2238       N  0.71876958  0.01637290  0.89041918     0.74100
O2239       O  0.69784190  0.15028912  0.87066320    -0.39400
O2240       O  0.65577540  0.13826361  0.83973963    -0.39300
O2241       O  0.74443219  0.01502309  0.90684055    -0.40000
O2242       O  0.70394016  0.99284313  0.88409448    -0.40100
C2243       C  0.70822800  0.07907931  0.65140295    -0.12400
C2244       C  0.68638892  0.05644854  0.65171129     0.04700
C2245       C  0.66588702  0.05535760  0.61646677    -0.07600
C2246       C  0.66950022  0.07472055  0.58087744    -0.08400
C2247       C  0.69284863  0.09595860  0.57852672    -0.02900
C2248       C  0.71072593  0.09964756  0.61673779     0.03900
N2249       N  0.72979948  0.12494950  0.62315338     0.66400
H2250       H  0.72284113  0.08156694  0.67942097     0.15300
H2251       H  0.65403090  0.07242930  0.55385362     0.15000
N2252       N  0.64194599  0.03397631  0.61491080     0.74100
O2253       O  0.71840339  0.14993021  0.62553954    -0.39400
O2254       O  0.75515042  0.12159816  0.63992418    -0.39300
O2255       O  0.61681912  0.04141472  0.60098674    -0.40000
O2256       O  0.64676119  0.00699333  0.62113344    -0.40100
O2257       O  0.65668330  0.52565453  0.29589095    -0.73000
O2258       O  0.65075237  0.96348861  0.20570726    -0.74000
O2259       O  0.65427584  0.96391358  0.29826973    -0.62600
O2260       O  0.65285071  0.52567792  0.20355336    -0.71000
O2261       O  0.70155482  0.52534419  0.20249003    -0.70600
O2262       O  0.70271634  0.96022191  0.29523374    -0.61800
O2263       O  0.69972610  0.96162518  0.20404101    -0.74400
O2264       O  0.70557747  0.52268868  0.29423593    -0.73100
Cu2265     Cu  0.65129570  0.49445448  0.25200078     1.04600
Cu2266     Cu  0.70522346  0.99215914  0.24822426     1.04300
C2267       C  0.68236918  0.53295643  0.31012397     0.93200
C2268       C  0.67419217  0.95262955  0.19131594     0.92300
C2269       C  0.67820001  0.95225241  0.31222462     0.84500
C2270       C  0.67716834  0.53572312  0.18806660     0.90700
C2271       C  0.69379906  0.60781624  0.45885261     0.86400
C2272       C  0.67266513  0.63305759  0.46232333    -0.53800
C2273       C  0.67583768  0.65715875  0.99414084     0.09300
C2274       C  0.70137535  0.64689635  0.02522731     0.20300
C2275       C  0.72451654  0.62159077  0.46023497    -0.54600
C2276       C  0.72855577  0.64475816  0.99474223     0.09400
C2277       C  0.69059020  0.59133291  0.50262307    -0.54100
C2278       C  0.69215443  0.61445245  0.03785358     0.10000
H2279       H  0.65300091  0.63512179  0.44208001     0.14500
H2280       H  0.70523117  0.66214250  0.05251111     0.00300
H2281       H  0.74120405  0.61461893  0.43850605     0.14800
H2282       H  0.68097488  0.57469698  0.00298822     0.14600
C2283       C  0.69162585  0.87512629  0.05198489     0.86400
C2284       C  0.67586817  0.84568343  0.04725366    -0.53800
C2285       C  0.68308577  0.82884485  0.50813259     0.09300
C2286       C  0.70515594  0.84632666  0.47870141     0.20300
C2287       C  0.72466320  0.86922846  0.05102269    -0.54600
C2288       C  0.73153425  0.85449424  0.50987214     0.09400
C2289       C  0.68587298  0.89161180  0.00833388    -0.54100
C2290       C  0.68966332  0.87595757  0.46731046     0.10000
H2291       H  0.65789642  0.83892926  0.06817494     0.14500
H2292       H  0.71212127  0.83321408  0.45105101     0.00300
H2293       H  0.74037651  0.87969250  0.07343398     0.14800
H2294       H  0.67256070  0.91143526  0.50477723     0.14600
O2295       O  0.78782393  0.54090203  0.29270313    -0.73000
O2296       O  0.79199312  0.97312940  0.20036609    -0.74000
O2297       O  0.78767888  0.97779308  0.29185053    -0.62600
O2298       O  0.79101811  0.53562128  0.20198703    -0.71000
O2299       O  0.83996172  0.53938134  0.20752353    -0.70600
O2300       O  0.83660693  0.97525758  0.29632290    -0.61800
O2301       O  0.84087180  0.97401515  0.20424454    -0.74400
O2302       O  0.83650890  0.54106651  0.29915266    -0.73100
Cu2303     Cu  0.78969741  0.00659674  0.24439427     1.04600
Cu2304     Cu  0.84194414  0.00578056  0.25071184     1.04300
C2305       C  0.81169787  0.55122275  0.31035646     0.93200
C2306       C  0.81669694  0.96374093  0.18737375     0.92300
C2307       C  0.81099795  0.96746490  0.30901724     0.84500
C2308       C  0.81560064  0.54652592  0.18960176     0.90700
C2309       C  0.80151215  0.62501238  0.04457129     0.86400
C2310       C  0.81714452  0.65532886  0.04303731    -0.53800
C2311       C  0.81088779  0.66868205  0.50788531     0.09300
C2312       C  0.78815553  0.65213568  0.47700981     0.20300
C2313       C  0.76901182  0.63219074  0.04253745    -0.54600
C2314       C  0.76238047  0.64265947  0.50742626     0.09400
C2315       C  0.80835184  0.61067103  0.00138261    -0.54100
C2316       C  0.80382727  0.62318791  0.46499161     0.10000
H2317       H  0.83470322  0.66248155  0.06504411     0.14500
H2318       H  0.78096361  0.66543160  0.44858963     0.00300
H2319       H  0.75335489  0.62211108  0.06398905     0.14800
H2320       H  0.82288307  0.58687744  0.49951490     0.14600
C2321       C  0.79695544  0.88907847  0.45464574     0.86400
C2322       C  0.81648673  0.86209144  0.45585496    -0.53800
C2323       C  0.81426141  0.84275933  0.99049844     0.09300
C2324       C  0.79350341  0.85623666  0.02496775     0.20300
C2325       C  0.76606360  0.87683674  0.46012799    -0.54600
C2326       C  0.76371653  0.86097167  0.99978989     0.09400
C2327       C  0.80509847  0.90520304  0.49700544    -0.54100
C2328       C  0.80680094  0.88798650  0.03382197     0.10000
H2329       H  0.83428312  0.85898286  0.43416992     0.14500
H2330       H  0.79046851  0.84172104  0.05329305     0.00300
H2331       H  0.74800523  0.88332020  0.43929080     0.14800
H2332       H  0.81798150  0.92565583  0.99352967     0.14600
O2333       O  0.95964823  0.66249218  0.29617294    -0.73000
O2334       O  0.52140058  0.65758896  0.20936087    -0.74000
O2335       O  0.51915667  0.65811163  0.30174296    -0.62600
O2336       O  0.96202644  0.66333263  0.20403574    -0.71000
O2337       O  0.96288215  0.71207488  0.20583609    -0.70600
O2338       O  0.52175870  0.70686974  0.30097661    -0.61800
O2339       O  0.52354296  0.70659198  0.20928923    -0.74400
O2340       O  0.96097451  0.71152830  0.29658774    -0.73100
Cu2341     Cu  0.99218153  0.66104108  0.25502808     1.04600
Cu2342     Cu  0.99324150  0.71335612  0.25530408     1.04300
C2343       C  0.95026779  0.68689877  0.30964520     0.93200
C2344       C  0.53200697  0.68195408  0.19521321     0.92300
C2345       C  0.53008235  0.68232282  0.31728618     0.84500
C2346       C  0.95263743  0.68802522  0.18931358     0.90700
C2347       C  0.61037099  0.68758503  0.05089685     0.86400
C2348       C  0.63714402  0.66895541  0.04391881    -0.53800
C2349       C  0.65487634  0.67044489  0.50972365     0.09300
C2350       C  0.64058952  0.69441123  0.47996444     0.20300
C2351       C  0.62224935  0.71948514  0.04810542    -0.54600
C2352       C  0.64045170  0.72199000  0.50961404     0.07400
C2353       C  0.59112613  0.68276651  0.00941235    -0.54100
C2354       C  0.60747238  0.68493688  0.47399431     0.10000
H2355       H  0.64334606  0.65014587  0.06317646     0.14500
H2356       H  0.65206091  0.69815912  0.44892780     0.00300
H2357       H  0.61692775  0.73562154  0.07177183     0.14800
H2358       H  0.57173101  0.67207318  0.51457627     0.14600
C2359       C  0.87460190  0.70367714  0.45078585     0.86400
C2360       C  0.84558193  0.68705614  0.45565424    -0.53800
C2361       C  0.83193395  0.69388460  0.99229428     0.09300
C2362       C  0.84982250  0.71640464  0.02164130     0.20300
C2363       C  0.86753178  0.73601480  0.45525847    -0.54600
C2364       C  0.85711799  0.74315589  0.99059838     0.09400
C2365       C  0.89318195  0.69710382  0.49233272    -0.54100
C2366       C  0.87987803  0.70141379  0.03081984     0.10000
H2367       H  0.83825326  0.67014802  0.43285999     0.14500
H2368       H  0.83809193  0.72261028  0.05124044     0.00300
H2369       H  0.87547077  0.75275853  0.43302167     0.14800
H2370       H  0.91578441  0.68703496  0.99346866     0.14600
O2371       O  0.52951924  0.78524496  0.20212286    -0.73000
O2372       O  0.97185018  0.78509893  0.29882102    -0.74000
O2373       O  0.97045426  0.78843471  0.20604134    -0.62600
O2374       O  0.53041874  0.78253703  0.29309969    -0.71000
O2375       O  0.53253420  0.83151612  0.29422760    -0.70600
O2376       O  0.97114430  0.83734407  0.20882793    -0.61800
O2377       O  0.97304329  0.83389430  0.30116401    -0.74400
O2378       O  0.53048004  0.83400202  0.20235403    -0.73100
Cu2379     Cu  0.00211441  0.78509549  0.25090981     1.04600
Cu2380     Cu  0.00333826  0.83735472  0.25250617     1.04300
C2381       C  0.53978767  0.80974511  0.18716948     0.93200
C2382       C  0.96332131  0.80898584  0.31581354     0.92300
C2383       C  0.96153965  0.81329546  0.19225234     0.84500
C2384       C  0.54164175  0.80667719  0.30738832     0.90700
C2385       C  0.62198650  0.79055123  0.44745527     0.86400
C2386       C  0.65033582  0.80814525  0.45381175    -0.53800
C2387       C  0.66144329  0.80784314  0.99697262     0.09300
C2388       C  0.64387360  0.78571501  0.02680768     0.20300
C2389       C  0.62989466  0.75862581  0.45477836    -0.54600
C2390       C  0.63678908  0.75845445  0.99716146     0.09400
C2391       C  0.60252779  0.79736740  0.48681211    -0.54100
C2392       C  0.61352679  0.80030635  0.03352003     0.10000
H2393       H  0.65727672  0.82509513  0.43089756     0.14500
H2394       H  0.65584468  0.78014439  0.05734648     0.00300
H2395       H  0.62191603  0.74108933  0.43377356     0.14800
H2396       H  0.57716844  0.81301988  0.99313353     0.14600
C2397       C  0.88544369  0.81483463  0.04118469     0.86400
C2398       C  0.85668852  0.83124710  0.03742191    -0.53800
C2399       C  0.83851461  0.82548325  0.50324667     0.09300
C2400       C  0.85191174  0.80121965  0.47388363     0.20300
C2401       C  0.87508746  0.78239646  0.03871704    -0.54600
C2402       C  0.85526247  0.77439170  0.50546802     0.09400
C2403       C  0.90189278  0.82117234  0.99891144    -0.54100
C2404       C  0.88427203  0.81175040  0.46457207     0.10000
H2405       H  0.84890940  0.84637280  0.06100171     0.14500
H2406       H  0.83863013  0.79610010  0.44415413     0.00300
H2407       H  0.88223185  0.76612081  0.06195238     0.14800
H2408       H  0.92253903  0.82549446  0.50151007     0.14600
C2409       C  0.91819665  0.82671462  0.35252449    -0.12400
C2410       C  0.94221793  0.80783394  0.35285224     0.04700
C2411       C  0.94525327  0.78804181  0.38837621    -0.07600
C2412       C  0.92519651  0.78874716  0.42292544    -0.08400
C2413       C  0.90138383  0.80820493  0.42307641    -0.02900
C2414       C  0.89778272  0.82663076  0.38641394     0.03900
N2415       N  0.87323203  0.84524940  0.38229158     0.66400
H2416       H  0.91489662  0.84147245  0.32521467     0.15300
H2417       H  0.92880710  0.77453818  0.45077874     0.15000
N2418       N  0.96938616  0.76820792  0.39123462     0.74100
O2419       O  0.87743840  0.87277613  0.38522158    -0.39400
O2420       O  0.85025971  0.83526308  0.36317759    -0.39300
O2421       O  0.99544966  0.77756944  0.38513712    -0.40000
O2422       O  0.96515419  0.74220665  0.40499477    -0.40100
C2423       C  0.92038075  0.83628437  0.15188164    -0.12400
C2424       C  0.94170243  0.81451774  0.15467757     0.04700
C2425       C  0.94696562  0.79713442  0.11849998    -0.07600
C2426       C  0.92956344  0.79997033  0.08179273    -0.08400
C2427       C  0.90604736  0.81939998  0.07986729    -0.02900
C2428       C  0.90300784  0.83969096  0.11416892     0.03900
N2429       N  0.88582221  0.86563205  0.10978699     0.66400
H2430       H  0.91817310  0.85149988  0.17842103     0.15300
H2431       H  0.93366452  0.78556354  0.05480995     0.15000
N2432       N  0.97041550  0.77688573  0.11769892     0.74100
O2433       O  0.87195666  0.87489563  0.14175246    -0.39400
O2434       O  0.88954873  0.88247847  0.07755000    -0.39300
O2435       O  0.96703513  0.75237122  0.13660120    -0.40000
O2436       O  0.98932991  0.77959499  0.08843885    -0.40100
C2437       C  0.58534964  0.78275668  0.33670739    -0.12400
C2438       C  0.56542483  0.80566427  0.33929711     0.04700
C2439       C  0.56914484  0.82736012  0.37145657    -0.07600
C2440       C  0.59105630  0.82387986  0.40290309    -0.08400
C2441       C  0.60750724  0.79811082  0.40466713    -0.02900
C2442       C  0.60745373  0.77950573  0.36811421     0.03900
N2443       N  0.63044537  0.75898131  0.36086481     0.66400
H2444       H  0.58396552  0.76765049  0.30970701     0.15300
H2445       H  0.59296474  0.83979249  0.42886664     0.15000
N2446       N  0.54924162  0.85123355  0.37540459     0.74100
O2447       O  0.62487318  0.73535336  0.34058063    -0.39400
O2448       O  0.65694566  0.76596006  0.37026854    -0.39300
O2449       O  0.52188829  0.84587665  0.37841463    -0.40000
O2450       O  0.55928061  0.87681259  0.38384785    -0.40100
C2451       C  0.55996547  0.83048418  0.11752078    -0.12400
C2452       C  0.56205562  0.80978715  0.15140423     0.04700
C2453       C  0.58486115  0.78897494  0.14955426    -0.07600
C2454       C  0.60296807  0.78796866  0.11273535    -0.08400
C2455       C  0.59865461  0.80645799  0.07647667    -0.02900
C2456       C  0.57822216  0.82957977  0.08093017     0.03900
N2457       N  0.57673383  0.85325251  0.04984254     0.66400
H2458       H  0.54377594  0.84753764  0.11940177     0.15300
H2459       H  0.62076184  0.77272102  0.11302505     0.15000
N2460       N  0.59057679  0.76923211  0.18516938     0.74100
O2461       O  0.55243710  0.86517915  0.04123078    -0.39400
O2462       O  0.59341608  0.85656136  0.52077520    -0.39300
O2463       O  0.59986305  0.74373622  0.17828532    -0.40000
O2464       O  0.58997761  0.77841402  0.22358943    -0.40100
C2465       C  0.93097030  0.66811870  0.11920488    -0.12400
C2466       C  0.93032584  0.68911776  0.15227444     0.04700
C2467       C  0.90900387  0.71145465  0.14834493    -0.07600
C2468       C  0.89141129  0.71391123  0.11004178    -0.08400
C2469       C  0.89428790  0.69473869  0.07488400    -0.02900
C2470       C  0.91281914  0.67012614  0.08152755     0.03900
N2471       N  0.91212964  0.64600352  0.05168428     0.66400
H2472       H  0.94581463  0.64989408  0.12265998     0.15300
H2473       H  0.87520058  0.73086076  0.10820114     0.15000
N2474       N  0.90419102  0.73123317  0.18342899     0.74100
O2475       O  0.93523714  0.63198971  0.04480525    -0.39400
O2476       O  0.88765672  0.63581732  0.03751135    -0.39300
O2477       O  0.89736417  0.75758021  0.17577160    -0.40000
O2478       O  0.90261196  0.72139932  0.22164316    -0.40100
C2479       C  0.90553702  0.70796178  0.33746690    -0.12400
C2480       C  0.92743516  0.68697664  0.34158487     0.04700
C2481       C  0.92778099  0.66735654  0.37695825    -0.07600
C2482       C  0.90816054  0.67142561  0.41006898    -0.08400
C2483       C  0.88916957  0.69543437  0.40928317    -0.02900
C2484       C  0.88526148  0.71144367  0.37010135     0.03900
N2485       N  0.86068838  0.73033037  0.36232810     0.66400
H2486       H  0.90416296  0.72154720  0.30857206     0.15300
H2487       H  0.90950519  0.65699124  0.43799197     0.15000
N2488       N  0.94958776  0.64517659  0.38190765     0.74100
O2489       O  0.86374812  0.75332665  0.33943133    -0.39400
O2490       O  0.83512159  0.72219288  0.37358972    -0.39300
O2491       O  0.97664291  0.65251973  0.38333110    -0.40000
O2492       O  0.94180521  0.61916521  0.39206051    -0.40100
C2493       C  0.55003843  0.70573008  0.38525669    -0.12400
C2494       C  0.55162466  0.68266879  0.35544197     0.04700
C2495       C  0.57276100  0.66064871  0.36402451    -0.07600
C2496       C  0.59117569  0.66233636  0.40190244    -0.08400
C2497       C  0.58905569  0.68521821  0.43220950    -0.02900
C2498       C  0.56750591  0.70688809  0.42356924     0.03900
N2499       N  0.56199166  0.72989628  0.45366701     0.66400
H2500       H  0.53374810  0.72249610  0.37985728     0.15300
H2501       H  0.60704015  0.64533172  0.40798616     0.15000
N2502       N  0.57638817  0.63682594  0.33443170     0.74100
O2503       O  0.55233810  0.72314972  0.49044844    -0.39400
O2504       O  0.55783262  0.75562550  0.43946797    -0.39300
O2505       O  0.57749204  0.64180860  0.29424561    -0.40000
O2506       O  0.58202081  0.61138549  0.34863204    -0.40100
C2507       C  0.57689646  0.66379582  0.16094821    -0.12400
C2508       C  0.55258573  0.68207169  0.15993779     0.04700
C2509       C  0.54770066  0.70069457  0.12451857    -0.07600
C2510       C  0.56722017  0.70154189  0.09120097    -0.08400
C2511       C  0.59197066  0.68366549  0.09104614    -0.02900
C2512       C  0.59722680  0.66484367  0.12734993     0.03900
N2513       N  0.62354657  0.64857441  0.13311615     0.66400
H2514       H  0.58082759  0.64970958  0.18884927     0.15300
H2515       H  0.56301266  0.71687605  0.06495744     0.15000
N2516       N  0.52269814  0.71893864  0.12154480     0.74100
O2517       O  0.64755733  0.66226690  0.14153927    -0.39400
O2518       O  0.62161336  0.62122609  0.14064227    -0.39300
O2519       O  0.52490872  0.74450317  0.13707851    -0.40000
O2520       O  0.50259247  0.71298449  0.09386203    -0.40100
C2521       C  0.80263342  0.91456181  0.15303134    -0.12400
C2522       C  0.81742910  0.94214782  0.15083743     0.04700
C2523       C  0.83281489  0.94913454  0.11290449    -0.07600
C2524       C  0.83101092  0.93013280  0.07714475    -0.08400
C2525       C  0.81400170  0.90342378  0.07718711    -0.02900
C2526       C  0.80220484  0.89460876  0.11774351     0.03900
N2527       N  0.79273498  0.86482532  0.12562346     0.66400
H2528       H  0.79244222  0.90792657  0.18309272     0.15300
H2529       H  0.84342691  0.93682547  0.04915770     0.15000
N2530       N  0.84914941  0.97641644  0.10914916     0.74100
O2531       O  0.81163284  0.84490674  0.12520017    -0.39400
O2532       O  0.76904883  0.85981038  0.14522332    -0.39300
O2533       O  0.87428778  0.97924795  0.12718305    -0.40000
O2534       O  0.84055806  0.99585107  0.08268555    -0.40100
C2535       C  0.81214029  0.89921885  0.37734599    -0.12400
C2536       C  0.79873141  0.90897006  0.41513309     0.04700
C2537       C  0.78676318  0.93759248  0.41511820    -0.07600
C2538       C  0.79215159  0.95649313  0.38043762    -0.08400
C2539       C  0.80794139  0.94725637  0.34503581    -0.02900
C2540       C  0.81777299  0.91835979  0.34297409     0.03900
N2541       N  0.83260274  0.90795113  0.30579296     0.66400
H2542       H  0.81797617  0.87663240  0.37375926     0.15300
H2543       H  0.78388863  0.97860921  0.38098407     0.15000
N2544       N  0.76926221  0.94799458  0.44974931     0.74100
O2545       O  0.85806446  0.91797320  0.29723327    -0.39400
O2546       O  0.82224181  0.88589608  0.28536574    -0.39300
O2547       O  0.77643675  0.97200246  0.46801568    -0.40000
O2548       O  0.74370060  0.93713267  0.45523505    -0.40100
C2549       C  0.78850270  0.61351950  0.38629158    -0.12400
C2550       C  0.80949134  0.61098719  0.42026360     0.04700
C2551       C  0.83404170  0.59285076  0.41297586    -0.07600
C2552       C  0.83409225  0.57423569  0.37679026    -0.08400
C2553       C  0.81101808  0.57374376  0.34582626    -0.02900
C2554       C  0.78863182  0.59477483  0.34983279     0.03900
N2555       N  0.76616788  0.59788797  0.31703362     0.66400
H2556       H  0.77116848  0.62928180  0.38851757     0.15300
H2557       H  0.85245109  0.55973489  0.37304019     0.15000
N2558       N  0.85965571  0.59381235  0.44116497     0.74100
O2559       O  0.74560524  0.57872241  0.31373965    -0.39400
O2560       O  0.76353683  0.62230097  0.29770790    -0.39300
O2561       O  0.87474641  0.57111144  0.44734302    -0.40000
O2562       O  0.86892348  0.61807125  0.45654784    -0.40100
C2563       C  0.79506196  0.55872796  0.11933760    -0.12400
C2564       C  0.81508115  0.56618589  0.15251865     0.04700
C2565       C  0.83341026  0.59153196  0.14914869    -0.07600
C2566       C  0.82972988  0.61023556  0.11344951    -0.08400
C2567       C  0.80808355  0.60383283  0.08120665    -0.02900
C2568       C  0.79172971  0.57670138  0.08351543     0.03900
N2569       N  0.77105040  0.56716848  0.05033851     0.66400
H2570       H  0.78181826  0.53849538  0.12108580     0.15300
H2571       H  0.84355256  0.62987788  0.11222623     0.15000
N2572       N  0.85476884  0.59927735  0.18231460     0.74100
O2573       O  0.74393572  0.56584275  0.05873647    -0.39400
O2574       O  0.78005598  0.55184759  0.01962143    -0.39300
O2575       O  0.88074504  0.60681885  0.17223925    -0.40000
O2576       O  0.84692367  0.60181599  0.22103083    -0.40100
C2577       C  0.66167690  0.91239205  0.41981352    -0.12400
C2578       C  0.68353080  0.89062111  0.42280268     0.04700
C2579       C  0.69995396  0.88629515  0.38455633    -0.07600
C2580       C  0.69810802  0.90673455  0.34957641    -0.08400
C2581       C  0.67792624  0.92983348  0.34877069    -0.02900
C2582       C  0.65852724  0.93145129  0.38381385     0.03900
N2583       N  0.63620554  0.95318578  0.38461000     0.66400
H2584       H  0.64634310  0.91486094  0.44577138     0.15300
H2585       H  0.71188371  0.90380849  0.32178801     0.15000
N2586       N  0.71661208  0.86034554  0.37841619     0.74100
O2587       O  0.61404139  0.95076392  0.35935955    -0.39400
O2588       O  0.63542980  0.97069868  0.41608845    -0.39300
O2589       O  0.70284471  0.83591347  0.37489011    -0.40000
O2590       O  0.74218897  0.86278749  0.36316693    -0.40100
C2591       C  0.68840917  0.90419535  0.16742016    -0.12400
C2592       C  0.67237382  0.92948724  0.15948070     0.04700
C2593       C  0.65671496  0.93299011  0.12046564    -0.07600
C2594       C  0.66064598  0.91289073  0.08763404    -0.08400
C2595       C  0.68150325  0.89047225  0.09229737    -0.02900
C2596       C  0.69211593  0.88340411  0.13493861     0.03900
N2597       N  0.70611956  0.85604316  0.14672936     0.66400
H2598       H  0.69842305  0.90104797  0.19922578     0.15300
H2599       H  0.64830651  0.91609633  0.05776626     0.15000
N2600       N  0.63992314  0.95870015  0.11177779     0.74100
O2601       O  0.71616362  0.85245065  0.18480224    -0.39400
O2602       O  0.70422443  0.83375066  0.12267741    -0.39300
O2603       O  0.65291428  0.98360910  0.11057082    -0.40000
O2604       O  0.61351002  0.95611879  0.09832386    -0.40100
C2605       C  0.67649244  0.58110194  0.34326909    -0.12400
C2606       C  0.68533111  0.55204422  0.34704200     0.04700
C2607       C  0.69755033  0.54137593  0.38591851    -0.07600
C2608       C  0.69968472  0.55979996  0.42142327    -0.08400
C2609       C  0.68975100  0.58889891  0.41904663    -0.02900
C2610       C  0.68016559  0.60027462  0.37813519     0.03900
N2611       N  0.67646993  0.63119118  0.37012559     0.66400
H2612       H  0.66851881  0.58932754  0.31225435     0.15300
H2613       H  0.71016927  0.55133462  0.45055542     0.15000
N2614       N  0.70753262  0.51176234  0.38995832     0.74100
O2615       O  0.69731683  0.64929507  0.37895207    -0.39400
O2616       O  0.65488321  0.63971321  0.34723675    -0.39300
O2617       O  0.73102143  0.50462728  0.37202903    -0.40000
O2618       O  0.69595692  0.49446918  0.41729710    -0.40100
C2619       C  0.70042697  0.58111894  0.15362980    -0.12400
C2620       C  0.67756494  0.55946864  0.15331437     0.04700
C2621       C  0.65638038  0.56071009  0.11901367    -0.07600
C2622       C  0.66093280  0.58032263  0.08388516    -0.08400
C2623       C  0.68515251  0.60059120  0.08216985    -0.02900
C2624       C  0.70340316  0.60263429  0.12025602     0.03900
N2625       N  0.72385673  0.62679264  0.12745160     0.66400
H2626       H  0.71565288  0.58194805  0.18112863     0.15300
H2627       H  0.64514354  0.57957222  0.05707593     0.15000
N2628       N  0.63044099  0.54189909  0.11836781     0.74100
O2629       O  0.71446798  0.65270273  0.12687782    -0.39400
O2630       O  0.74847994  0.62215004  0.14579380    -0.39300
O2631       O  0.61204247  0.54383708  0.14822400    -0.40000
O2632       O  0.62240777  0.52926863  0.08365512    -0.40100
O2633       O  0.66347326  0.52176359  0.80243442    -0.73000
O2634       O  0.65736272  0.96253234  0.70590577    -0.74000
O2635       O  0.65847336  0.96190906  0.79872670    -0.62600
O2636       O  0.66336282  0.52267653  0.71021012    -0.71000
O2637       O  0.71214374  0.52612848  0.71361096    -0.70600
O2638       O  0.70705602  0.95907811  0.79715858    -0.61800
O2639       O  0.70644057  0.96328811  0.70516309    -0.74400
O2640       O  0.71256218  0.52150280  0.80564895    -0.73100
Cu2641     Cu  0.66183180  0.49112375  0.75750046     1.04600
Cu2642     Cu  0.70992473  0.99217857  0.75163193     1.04300
C2643       C  0.68806698  0.53047536  0.81912448     0.93200
C2644       C  0.68150736  0.95421875  0.69021486     0.92300
C2645       C  0.68238656  0.95068439  0.81338871     0.84500
C2646       C  0.68756800  0.53419055  0.69653675     0.90700
C2647       C  0.69199421  0.61394893  0.95766035     0.86400
C2648       C  0.67099932  0.63946220  0.95946260    -0.53800
C2649       C  0.67811443  0.65056690  0.49687411     0.09300
C2650       C  0.70425725  0.64044683  0.52654633     0.20300
C2651       C  0.72263423  0.62772685  0.96002714    -0.54600
C2652       C  0.73076559  0.63870640  0.49495290     0.09400
C2653       C  0.68766433  0.59783773  0.00139700    -0.54100
C2654       C  0.69567657  0.60790284  0.53918810     0.10000
H2655       H  0.65130721  0.64110412  0.93927349     0.14500
H2656       H  0.70865455  0.65558510  0.55376417     0.00300
H2657       H  0.73962539  0.62062318  0.93904959     0.14800
H2658       H  0.68410275  0.56820953  0.50431198     0.14600
C2659       C  0.69019593  0.87425086  0.54779034     0.86400
C2660       C  0.67538517  0.84376490  0.54388994    -0.53800
C2661       C  0.68335795  0.83023976  0.01233437     0.09300
C2662       C  0.70662118  0.84676622  0.98352240     0.20300
C2663       C  0.72313871  0.86843437  0.54580150    -0.54600
C2664       C  0.73319281  0.85481632  0.01508402     0.09400
C2665       C  0.68229478  0.88987661  0.50464749    -0.54100
C2666       C  0.69252911  0.87686651  0.97129574     0.10000
H2667       H  0.65771404  0.83538349  0.56345302     0.14500
H2668       H  0.71341718  0.83312227  0.95635508     0.00300
H2669       H  0.73909748  0.87867660  0.56789326     0.14800
H2670       H  0.67934585  0.91435410  0.00698915     0.14600
O2671       O  0.78401271  0.54139115  0.79548830    -0.73000
O2672       O  0.78889480  0.97399670  0.70253069    -0.74000
O2673       O  0.78615459  0.97785739  0.79393278    -0.62600
O2674       O  0.78806093  0.53650179  0.70458879    -0.71000
O2675       O  0.83705932  0.53785583  0.71137469    -0.70600
O2676       O  0.83512126  0.97559496  0.79714987    -0.61800
O2677       O  0.83777383  0.97463694  0.70496184    -0.74400
O2678       O  0.83262939  0.53972516  0.80259336    -0.73100
Cu2679     Cu  0.78751611  0.00715049  0.74703408     1.04600
Cu2680     Cu  0.83981400  0.00628024  0.75178070     1.04300
C2681       C  0.80819721  0.55103671  0.81315613     0.93200
C2682       C  0.81332452  0.96452419  0.68869850     0.92300
C2683       C  0.80970871  0.96729776  0.81000570     0.84500
C2684       C  0.81333256  0.54610147  0.69285314     0.90700
C2685       C  0.80445359  0.62149265  0.54441164     0.86400
C2686       C  0.81891187  0.65240974  0.54331482    -0.53800
C2687       C  0.80987245  0.67163250  0.00733383     0.09300
C2688       C  0.78641813  0.65580809  0.97674610     0.20300
C2689       C  0.77166779  0.62726165  0.54224970    -0.54600
C2690       C  0.76027100  0.64782691  0.00758006     0.09400
C2691       C  0.81200629  0.60779767  0.50104676    -0.54100
C2692       C  0.80079712  0.62601280  0.96507497     0.10000
H2693       H  0.83646764  0.65992844  0.56509541     0.14500
H2694       H  0.77980388  0.66919901  0.94811753     0.00300
H2695       H  0.75634814  0.61649487  0.56373537     0.14800
H2696       H  0.81845574  0.58932065  0.00014333     0.14600
C2697       C  0.79816294  0.88740371  0.95437295     0.86400
C2698       C  0.81553042  0.85892652  0.95350971    -0.53800
C2699       C  0.81372824  0.84497732  0.49168101     0.09300
C2700       C  0.79092980  0.85693889  0.52415035     0.20300
C2701       C  0.76697785  0.87741174  0.96360933    -0.54600
C2702       C  0.76216813  0.86012827  0.49589098     0.09400
C2703       C  0.80955878  0.90321299  0.99554987    -0.54100
C2704       C  0.80207001  0.88922047  0.53458823     0.10000
H2705       H  0.83108821  0.85373966  0.92893325     0.14500
H2706       H  0.78767708  0.84217048  0.55215509     0.00300
H2707       H  0.74855932  0.88476987  0.94438154     0.14800
H2708       H  0.81218276  0.92815251  0.49644818     0.14600
O2709       O  0.96087925  0.66352121  0.79474786    -0.73000
O2710       O  0.52216423  0.66167428  0.70714152    -0.74000
O2711       O  0.51906810  0.66335153  0.79865462    -0.62600
O2712       O  0.96333152  0.66500329  0.70260843    -0.71000
O2713       O  0.96280507  0.71370695  0.70513087    -0.70600
O2714       O  0.51979425  0.71216542  0.79709710    -0.61800
O2715       O  0.52263506  0.71065447  0.70529274    -0.74400
O2716       O  0.96069563  0.71255089  0.79575146    -0.73100
Cu2717     Cu  0.99338946  0.66319191  0.75354800     1.04600
Cu2718     Cu  0.99302092  0.71550858  0.75442751     1.04300
C2719       C  0.95083123  0.68752544  0.80861755     0.93200
C2720       C  0.53250738  0.68608631  0.69290687     0.92300
C2721       C  0.52884171  0.68808500  0.81392380     0.84500
C2722       C  0.95334256  0.68951873  0.68821607     0.90700
C2723       C  0.61459864  0.68497236  0.55331687     0.86400
C2724       C  0.64106953  0.66557713  0.54777715    -0.53800
C2725       C  0.65164326  0.67591965  0.00717823     0.09300
C2726       C  0.63703601  0.70056640  0.97903759     0.20300
C2727       C  0.62752598  0.71630763  0.54786335    -0.54600
C2728       C  0.63562686  0.72693848  0.01069462     0.07400
C2729       C  0.59478400  0.67905127  0.51260774    -0.54100
C2730       C  0.60423051  0.69036261  0.97164190     0.10000
H2731       H  0.64841315  0.64872426  0.56993432     0.14500
H2732       H  0.64871721  0.70586772  0.94861504     0.00300
H2733       H  0.62361742  0.73335901  0.57079398     0.14800
H2734       H  0.56828140  0.67495767  0.01024146     0.14600
C2735       C  0.87586232  0.70218692  0.95081551     0.86400
C2736       C  0.84590531  0.68733431  0.95542500    -0.53800
C2737       C  0.83172698  0.69219399  0.49312982     0.09300
C2738       C  0.84863321  0.71525591  0.52272874     0.20300
C2739       C  0.87056405  0.73503079  0.95408612    -0.54600
C2740       C  0.85406250  0.74283687  0.49239973     0.09400
C2741       C  0.89349795  0.69508440  0.99312474    -0.54100
C2742       C  0.87964818  0.70193948  0.53061198     0.10000
H2743       H  0.83787336  0.67050193  0.93298919     0.14500
H2744       H  0.83687997  0.72027558  0.55281658     0.00300
H2745       H  0.87916074  0.75100956  0.93109190     0.14800
H2746       H  0.91588185  0.69023250  0.49142189     0.14600
O2747       O  0.53443765  0.78235536  0.69990258    -0.73000
O2748       O  0.97623299  0.78926884  0.79695607    -0.74000
O2749       O  0.97440017  0.79005740  0.70421651    -0.62600
O2750       O  0.53555758  0.78443916  0.79094504    -0.71000
O2751       O  0.53475437  0.83341561  0.78722405    -0.70600
O2752       O  0.97421484  0.83896619  0.70450832    -0.61800
O2753       O  0.97638569  0.83800935  0.79714807    -0.74400
O2754       O  0.53250903  0.83091193  0.69470323    -0.73100
Cu2755     Cu  0.00656283  0.78852358  0.74887550     1.04600
Cu2756     Cu  0.00672418  0.84073061  0.74786203     1.04300
C2757       C  0.54296508  0.80650588  0.68187281     0.93200
C2758       C  0.96701685  0.81324394  0.81291761     0.92300
C2759       C  0.96456770  0.81438712  0.68971385     0.84500
C2760       C  0.54492157  0.80979488  0.80326338     0.90700
C2761       C  0.61745648  0.79845340  0.95379542     0.86400
C2762       C  0.64714819  0.81394333  0.95927318    -0.53800
C2763       C  0.66363800  0.80425270  0.49287448     0.09300
C2764       C  0.64701169  0.78135248  0.52252311     0.20300
C2765       C  0.62323668  0.76577313  0.95931125    -0.54600
C2766       C  0.64264108  0.75299380  0.49384001     0.09400
C2767       C  0.59976194  0.80587517  0.99463866    -0.54100
C2768       C  0.61550405  0.79381043  0.52681805     0.10000
H2769       H  0.65470431  0.83093284  0.93682514     0.14500
H2770       H  0.65876645  0.77732057  0.55375547     0.00300
H2771       H  0.61484606  0.74935992  0.93659947     0.14800
H2772       H  0.57971037  0.80352032  0.48269396     0.14600
C2773       C  0.88252810  0.81357544  0.54412853     0.86400
C2774       C  0.85459048  0.83130594  0.53985839    -0.53800
C2775       C  0.84053768  0.82486424  0.00103181     0.09300
C2776       C  0.85504538  0.80155246  0.97114317     0.20300
C2777       C  0.87075103  0.78161118  0.54194111    -0.54600
C2778       C  0.85952106  0.77485164  0.00252500     0.09400
C2779       C  0.89931707  0.81887792  0.50171047    -0.54100
C2780       C  0.88699761  0.81374741  0.96184520     0.10000
H2781       H  0.84720104  0.84702985  0.56294535     0.14500
H2782       H  0.84200792  0.79596250  0.94136873     0.00300
H2783       H  0.87745555  0.76521944  0.56519394     0.14800
H2784       H  0.92480732  0.82885851  0.99866346     0.14600
C2785       C  0.92399869  0.83385920  0.85310536    -0.12400
C2786       C  0.94553913  0.81219423  0.85002419     0.04700
C2787       C  0.94616690  0.79003145  0.88281497    -0.07600
C2788       C  0.92554955  0.79017794  0.91671781    -0.08400
C2789       C  0.90414688  0.81202070  0.92008864    -0.02900
C2790       C  0.90389512  0.83438193  0.88775314     0.03900
N2791       N  0.88469967  0.85882395  0.89061667     0.66400
H2792       H  0.92335620  0.85121260  0.82887018     0.15300
H2793       H  0.92738908  0.77388110  0.94237530     0.15000
N2794       N  0.96884439  0.76846434  0.88429733     0.74100
O2795       O  0.88339493  0.87290481  0.92556525    -0.39400
O2796       O  0.87366018  0.86976300  0.85649133    -0.39300
O2797       O  0.99551597  0.77637747  0.87973000    -0.40000
O2798       O  0.96293667  0.74256720  0.89725659    -0.40100
C2799       C  0.92108875  0.83570424  0.65267086    -0.12400
C2800       C  0.94291453  0.81438550  0.65409527     0.04700
C2801       C  0.94616471  0.79586107  0.61854865    -0.07600
C2802       C  0.92668720  0.79746875  0.58384900    -0.08400
C2803       C  0.90352992  0.81740072  0.58269663    -0.02900
C2804       C  0.90182115  0.83809259  0.61678072     0.03900
N2805       N  0.88359990  0.86331575  0.61402044     0.66400
H2806       H  0.91985633  0.85142235  0.67877723     0.15300
H2807       H  0.92950865  0.78235789  0.55727792     0.15000
N2808       N  0.96995393  0.77612161  0.61584833     0.74100
O2809       O  0.86820621  0.87010374  0.64584034    -0.39400
O2810       O  0.88777174  0.88204145  0.58420352    -0.39300
O2811       O  0.96875208  0.75246838  0.63737307    -0.40000
O2812       O  0.98657620  0.77795931  0.58362385    -0.40100
C2813       C  0.59109356  0.79363163  0.83653035    -0.12400
C2814       C  0.56675339  0.81168990  0.83779509     0.04700
C2815       C  0.56242867  0.82985975  0.87345582    -0.07600
C2816       C  0.58101707  0.82751049  0.90940232    -0.08400
C2817       C  0.60312067  0.80632251  0.91087799    -0.02900
C2818       C  0.61025848  0.79167846  0.87212713     0.03900
N2819       N  0.63612510  0.77426841  0.86861501     0.66400
H2820       H  0.59501389  0.78083746  0.80785458     0.15300
H2821       H  0.57711456  0.84157305  0.93666156     0.15000
N2822       N  0.53741491  0.84832867  0.87546368     0.74100
O2823       O  0.63471401  0.75015111  0.84846355    -0.39400
O2824       O  0.66108573  0.78477680  0.88013589    -0.39300
O2825       O  0.51348087  0.83820692  0.89037542    -0.40000
O2826       O  0.54013674  0.87545180  0.86674075    -0.40100
C2827       C  0.55904445  0.82316232  0.60791847    -0.12400
C2828       C  0.56427540  0.80583512  0.64496349     0.04700
C2829       C  0.58890631  0.78717087  0.64492387    -0.07600
C2830       C  0.60633791  0.78525336  0.60752832    -0.08400
C2831       C  0.59955013  0.80050873  0.56880621    -0.02900
C2832       C  0.57649663  0.82129951  0.57061972     0.03900
N2833       N  0.57177291  0.84233772  0.53640026     0.66400
H2834       H  0.54110487  0.83846638  0.60796222     0.15300
H2835       H  0.62564649  0.77195868  0.60947619     0.15000
N2836       N  0.59709198  0.77054980  0.68286744     0.74100
O2837       O  0.54589709  0.84949663  0.52565020    -0.39400
O2838       O  0.60015012  0.86464652  0.03493525    -0.39300
O2839       O  0.60790221  0.74535195  0.67921015    -0.40000
O2840       O  0.59672246  0.78228094  0.71975350    -0.40100
C2841       C  0.93339043  0.67031842  0.61694583    -0.12400
C2842       C  0.93123149  0.69026897  0.65109993     0.04700
C2843       C  0.90868550  0.71137332  0.64814586    -0.07600
C2844       C  0.89072375  0.71336284  0.61022203    -0.08400
C2845       C  0.89485614  0.69535640  0.57408801    -0.02900
C2846       C  0.91525152  0.67212982  0.57930123     0.03900
N2847       N  0.91649528  0.64899981  0.54805100     0.66400
H2848       H  0.94946220  0.65310897  0.61947437     0.15300
H2849       H  0.87325930  0.72902084  0.60952243     0.15000
N2850       N  0.90312016  0.73043046  0.68377029     0.74100
O2851       O  0.94083348  0.63769649  0.53954350    -0.39400
O2852       O  0.89287777  0.63681565  0.53408177    -0.39300
O2853       O  0.89591591  0.75676183  0.67688155    -0.40000
O2854       O  0.90168928  0.72001210  0.72166299    -0.40100
C2855       C  0.90465725  0.70538907  0.83648378    -0.12400
C2856       C  0.92836419  0.68654923  0.84107933     0.04700
C2857       C  0.93088684  0.66797875  0.87744907    -0.07600
C2858       C  0.91118904  0.67090455  0.91080398    -0.08400
C2859       C  0.89019259  0.69318214  0.90941063    -0.02900
C2860       C  0.88454947  0.70793599  0.86956439     0.03900
N2861       N  0.85902468  0.72562301  0.86228780     0.66400
H2862       H  0.90190979  0.71824951  0.80710000     0.15300
H2863       H  0.91377998  0.65684966  0.93894218     0.15000
N2864       N  0.95498427  0.64835943  0.88307541     0.74100
O2865       O  0.86092310  0.74889301  0.83975697    -0.39400
O2866       O  0.83384588  0.71600220  0.87307366    -0.39300
O2867       O  0.98119037  0.65849281  0.88359048    -0.40000
O2868       O  0.95004928  0.62194577  0.89443012    -0.40100
C2869       C  0.54636524  0.71084491  0.88381053    -0.12400
C2870       C  0.55002677  0.68927932  0.85217990     0.04700
C2871       C  0.57285718  0.66889341  0.85892657    -0.07600
C2872       C  0.59077937  0.67020798  0.89716920    -0.08400
C2873       C  0.58649651  0.69130566  0.92949201    -0.02900
C2874       C  0.56352256  0.71167121  0.92241027     0.03900
N2875       N  0.55645750  0.73294388  0.95437729     0.66400
H2876       H  0.52883951  0.72642785  0.87954974     0.15300
H2877       H  0.60785830  0.65427084  0.90197249     0.15000
N2878       N  0.57850674  0.64711019  0.82696304     0.74100
O2879       O  0.54428773  0.72426614  0.98865181    -0.39400
O2880       O  0.55402061  0.75957784  0.94316238    -0.39300
O2881       O  0.58058367  0.65440475  0.78761403    -0.40000
O2882       O  0.58340802  0.62088892  0.83830900    -0.40100
C2883       C  0.57814841  0.66606561  0.66300041    -0.12400
C2884       C  0.55497189  0.68589174  0.66010023     0.04700
C2885       C  0.55213399  0.70409641  0.62376825    -0.07600
C2886       C  0.57287563  0.70354425  0.59223361    -0.08400
C2887       C  0.59592324  0.68354094  0.59337281    -0.02900
C2888       C  0.59864510  0.66447098  0.62977006     0.03900
N2889       N  0.62114432  0.64322394  0.63385416     0.66400
H2890       H  0.58006821  0.65148320  0.69079375     0.15300
H2891       H  0.57029216  0.71871640  0.56538661     0.15000
N2892       N  0.52684396  0.72142514  0.61604078     0.74100
O2893       O  0.64391369  0.64904853  0.65672895    -0.39400
O2894       O  0.61552560  0.61692529  0.62275285    -0.39300
O2895       O  0.52655928  0.74682654  0.63204320    -0.40000
O2896       O  0.51033211  0.71548914  0.58368813    -0.40100
C2897       C  0.79625991  0.91649760  0.65351680    -0.12400
C2898       C  0.81334031  0.94282390  0.65217010     0.04700
C2899       C  0.82990401  0.94860057  0.61490839    -0.07600
C2900       C  0.82762254  0.92950022  0.57930040    -0.08400
C2901       C  0.80871737  0.90408913  0.57850677    -0.02900
C2902       C  0.79485901  0.89651857  0.61823978     0.03900
N2903       N  0.78169479  0.86795128  0.62539772     0.66400
H2904       H  0.78470664  0.91089057  0.68290882     0.15300
H2905       H  0.84098117  0.93512497  0.55173193     0.15000
N2906       N  0.84768134  0.97500791  0.61133319     0.74100
O2907       O  0.79834253  0.84610289  0.62745616    -0.39400
O2908       O  0.75691344  0.86587556  0.64320739    -0.39300
O2909       O  0.87242258  0.97687097  0.63074033    -0.40000
O2910       O  0.84081473  0.99443660  0.58375391    -0.40100
C2911       C  0.81138628  0.89777176  0.87601458    -0.12400
C2912       C  0.79920687  0.90739773  0.91486793     0.04700
C2913       C  0.78811483  0.93639146  0.91643215    -0.07600
C2914       C  0.79270701  0.95552300  0.88186830    -0.08400
C2915       C  0.80719148  0.94639155  0.84523284    -0.02900
C2916       C  0.81621793  0.91719317  0.84156603     0.03900
N2917       N  0.82925030  0.90666889  0.80281418     0.66400
H2918       H  0.81710512  0.87513292  0.87157917     0.15300
H2919       H  0.78483861  0.97781508  0.88355005     0.15000
N2920       N  0.77270424  0.94713981  0.95296811     0.74100
O2921       O  0.85187168  0.91957275  0.78786620    -0.39400
O2922       O  0.82105518  0.88201299  0.78744913    -0.39300
O2923       O  0.78249279  0.96995476  0.97216543    -0.40000
O2924       O  0.74637532  0.93867064  0.95899134    -0.40100
C2925       C  0.78547972  0.61491754  0.88642054    -0.12400
C2926       C  0.80637451  0.61297698  0.92067763     0.04700
C2927       C  0.83086885  0.59455995  0.91421402    -0.07600
C2928       C  0.83099959  0.57529620  0.87870376    -0.08400
C2929       C  0.80816710  0.57454633  0.84737996    -0.02900
C2930       C  0.78594116  0.59583595  0.85026088     0.03900
N2931       N  0.76421764  0.59896917  0.81627580     0.66400
H2932       H  0.76860668  0.63122025  0.88744215     0.15300
H2933       H  0.84920449  0.56050459  0.87577955     0.15000
N2934       N  0.85635068  0.59582264  0.94265012     0.74100
O2935       O  0.73749756  0.60221796  0.82530276    -0.39400
O2936       O  0.77217597  0.60218386  0.77758714    -0.39300
O2937       O  0.87086700  0.57295933  0.95052532    -0.40000
O2938       O  0.86628081  0.62037934  0.95611625    -0.40100
C2939       C  0.79734046  0.55587969  0.61980480    -0.12400
C2940       C  0.81457863  0.56503589  0.65521348     0.04700
C2941       C  0.83232654  0.59091637  0.65307589    -0.07600
C2942       C  0.83045452  0.60849839  0.61581077    -0.08400
C2943       C  0.81119234  0.60052446  0.58121885    -0.02900
C2944       C  0.79587533  0.57278071  0.58266804     0.03900
N2945       N  0.77751315  0.56189146  0.54758848     0.66400
H2946       H  0.78470267  0.53523763  0.62097697     0.15300
H2947       H  0.84322094  0.62884470  0.61544240     0.15000
N2948       N  0.85098250  0.60044489  0.68880549     0.74100
O2949       O  0.74991349  0.56052008  0.55212460    -0.39400
O2950       O  0.78870073  0.54565731  0.51966215    -0.39300
O2951       O  0.87538555  0.61348334  0.68180550    -0.40000
O2952       O  0.84183203  0.59884055  0.72707321    -0.40100
C2953       C  0.66567757  0.91325810  0.92258654    -0.12400
C2954       C  0.68708649  0.89113110  0.92632479     0.04700
C2955       C  0.70336561  0.88577949  0.88818926    -0.07600
C2956       C  0.70176613  0.90553465  0.85236231    -0.08400
C2957       C  0.68183684  0.92879700  0.85056764    -0.02900
C2958       C  0.66259941  0.93147696  0.88565818     0.03900
N2959       N  0.64054773  0.95350965  0.88550709     0.66400
H2960       H  0.65067017  0.91663335  0.94873956     0.15300
H2961       H  0.71554422  0.90195481  0.82476455     0.15000
N2962       N  0.71999056  0.85967995  0.88328353     0.74100
O2963       O  0.61823220  0.95073454  0.86061141    -0.39400
O2964       O  0.64017008  0.97185084  0.91598969    -0.39300
O2965       O  0.70615180  0.83528268  0.88001414    -0.40000
O2966       O  0.74573741  0.86182455  0.86857609    -0.40100
C2967       C  0.66405770  0.90872718  0.65443568    -0.12400
C2968       C  0.68105214  0.93474794  0.65344718     0.04700
C2969       C  0.69871942  0.94151367  0.61797558    -0.07600
C2970       C  0.69993560  0.92161707  0.58455042    -0.08400
C2971       C  0.68436007  0.89428882  0.58568435    -0.02900
C2972       C  0.66576764  0.88811077  0.62134586     0.03900
N2973       N  0.64902906  0.86131471  0.62602808     0.66400
H2974       H  0.65037827  0.90376207  0.68205229     0.15300
H2975       H  0.71399235  0.92732856  0.55760983     0.15000
N2976       N  0.71544004  0.96864646  0.61529796     0.74100
O2977       O  0.62130428  0.86181971  0.62190334    -0.39400
O2978       O  0.66067863  0.83969387  0.64506089    -0.39300
O2979       O  0.74220572  0.96939900  0.62738043    -0.40000
O2980       O  0.70546105  0.98971716  0.59305050    -0.40100
C2981       C  0.67282324  0.57703421  0.84894086    -0.12400
C2982       C  0.68825269  0.55099096  0.85455704     0.04700
C2983       C  0.70606928  0.54650723  0.89169362    -0.07600
C2984       C  0.70627198  0.56749988  0.92394574    -0.08400
C2985       C  0.68985820  0.59327192  0.91974292    -0.02900
C2986       C  0.67526987  0.59933624  0.87974475     0.03900
N2987       N  0.66749687  0.62862365  0.86673450     0.66400
H2988       H  0.66137093  0.58116873  0.81842185     0.15300
H2989       H  0.71968143  0.56373402  0.95282790     0.15000
N2990       N  0.72409754  0.52108264  0.89735293     0.74100
O2991       O  0.68617816  0.64955509  0.87141116    -0.39400
O2992       O  0.64543681  0.63237792  0.84192073    -0.39300
O2993       O  0.74899591  0.52360728  0.91625627    -0.40000
O2994       O  0.71396459  0.49566968  0.88825827    -0.40100
C2995       C  0.70720817  0.58005044  0.65812306    -0.12400
C2996       C  0.68715624  0.55587769  0.65930711     0.04700
C2997       C  0.66734756  0.55220581  0.62380124    -0.07600
C2998       C  0.66947735  0.57077867  0.58727835    -0.08400
C2999       C  0.69084727  0.59397778  0.58414827    -0.02900
C3000       C  0.70829761  0.59988117  0.62232066     0.03900
N3001       N  0.72568613  0.62646908  0.62732767     0.66400
H3002       H  0.72153421  0.58418328  0.68605810     0.15300
H3003       H  0.65409734  0.56655387  0.56063255     0.15000
N3004       N  0.64593846  0.52847929  0.62296309     0.74100
O3005       O  0.71256107  0.65054745  0.62978793    -0.39400
O3006       O  0.75151654  0.62505958  0.64321002    -0.39300
O3007       O  0.62186402  0.53115425  0.64212507    -0.40000
O3008       O  0.64878050  0.50738935  0.59711460    -0.40100
loop_ 
_geom_bond_atom_site_label_1 
_geom_bond_atom_site_label_2 
_geom_bond_distance 
_geom_bond_site_symmetry_2 
_ccdc_geom_bond_type 
O1           Cu9   1.972   1_545  S
O1           C11   1.271       .  A
O2         Cu761   1.971       .  S
O2           C12   1.270       .  A
O3         Cu761   2.048       .  S
O3           C13   1.284       .  A
O4           Cu9   2.055   1_545  S
O4           C14   1.283       .  A
O5         Cu762   2.039   1_545  S
O5           C14   1.280       .  A
O6          Cu10   2.035       .  S
O6           C13   1.280       .  A
O7          Cu10   1.980       .  S
O7           C12   1.277       .  A
O8         Cu762   1.969   1_545  S
O8           C11   1.273       .  A
Cu9         O754   1.974       .  S
Cu9         O755   2.059       .  S
Cu9        Cu762   2.370       .  S
Cu10        O757   2.047       .  S
Cu10        O760   1.978       .  S
Cu10       Cu761   2.371       .  S
C11         C350   1.439       .  S
C12         C336   1.453       .  S
C13         C325   1.503       .  S
C14         C364   1.508       .  S
C15          C16   1.521       .  S
C15          C21   1.550       .  S
C15          C19   1.512       .  S
C15         C353   1.513       .  S
C16          H23   1.083       .  S
C16         C393   1.352       .  D
C17          C18   1.557   1_556  S
C17         C392   1.356       .  D
C17         C469   1.470   1_556  S
C18          C22   1.564       .  S
C18          C20   1.571   1_554  S
C18          H24   1.102       .  S
C19          H25   1.080       .  S
C19         C396   1.350       .  D
C20         C395   1.349       .  D
C20         C434   1.484   1_556  S
C21         H402   1.083       .  S
C21         C398   1.370       .  D
C22         C397   1.369   1_554  D
C22         C367   1.534       .  S
H26         C397   1.085       .  S
C27          C28   1.508       .  S
C27          C33   1.560       .  S
C27          C31   1.528       .  S
C27         C339   1.517       .  S
C28          H35   1.087       .  S
C28         C405   1.349       .  D
C29          C30   1.556       .  S
C29         C404   1.356       .  D
C29         C507   1.468       .  S
C30          C34   1.561       .  S
C30          C32   1.553       .  S
C30          H36   1.100       .  S
C31          H37   1.086       .  S
C31         C408   1.360       .  D
C32         C407   1.347       .  D
C32         C446   1.474       .  S
C33         H414   1.082       .  S
C33         C410   1.373   1_554  D
C34         C409   1.375       .  D
C34         C322   1.537       .  S
H38         C409   1.084       .  S
O39        Cu799   2.043       .  S
O39          C49   1.280       .  A
O40         Cu47   2.051       .  S
O40          C50   1.282       .  A
O41         Cu47   1.957       .  S
O41          C51   1.271       .  A
O42        Cu799   1.952       .  S
O42          C52   1.273       .  A
O43        Cu800   1.979       .  S
O43          C52   1.273       .  A
O44         Cu48   1.977       .  S
O44          C51   1.275       .  A
O45         Cu48   2.032       .  S
O45          C50   1.280       .  A
O46        Cu800   2.026       .  S
O46          C49   1.282       .  A
Cu47        O791   2.036       .  S
Cu47        O794   1.952       .  S
Cu47        Cu48   2.376       .  S
Cu48        O795   1.978       .  S
Cu48        O798   2.023       .  S
C49         C297   1.506       .  S
C50         C266   1.498       .  S
C51         C283   1.443       .  S
C52         C308   1.442       .  S
C53          C54   1.532       .  S
C53          C59   1.531   1_554  S
C53          C57   1.514       .  S
C53         C311   1.508       .  S
C54          H61   1.082       .  S
C54         C431   1.366       .  D
C55          C56   1.568       .  S
C55         C430   1.364       .  D
C55         C481   1.481       .  S
C56          C60   1.560       .  S
C56          C58   1.565       .  S
C56          H62   1.110       .  S
C57          H63   1.075       .  S
C57         C434   1.345       .  D
C58         C433   1.345       .  D
C58         C396   1.483       .  S
C59         H440   1.084       .  S
C59         C436   1.359       .  D
C60         C435   1.361       .  D
C60         C294   1.519       .  S
H64         C435   1.083       .  S
C65          C66   1.534       .  S
C65          C71   1.538       .  S
C65          C69   1.512       .  S
C65         C280   1.519       .  S
C66          H73   1.084       .  S
C66         C443   1.348       .  D
C67          C68   1.569   1_556  S
C67         C442   1.354       .  D
C67         C519   1.481   1_556  S
C68          C72   1.572       .  S
C68          C70   1.556       .  S
C68          H74   1.101       .  S
C69          H75   1.077       .  S
C69         C446   1.351       .  D
C70         C445   1.347   1_554  D
C70         C408   1.486       .  S
C71         H452   1.083       .  S
C71         C448   1.374       .  D
C72         C447   1.373   1_554  D
C72         C269   1.537       .  S
H76         C447   1.081       .  S
O77         Cu85   1.973       .  S
O77          C87   1.274       .  A
O78       Cu1589   1.969   1_455  S
O78          C88   1.271       .  A
O79       Cu1589   2.067   1_455  S
O79          C89   1.285       .  A
O80         Cu85   2.065       .  S
O80          C90   1.285       .  A
O81         Cu86   2.028       .  S
O81          C90   1.279       .  A
O82       Cu1590   2.035       .  S
O82          C89   1.280       .  A
O83       Cu1590   1.974       .  S
O83          C88   1.276       .  A
O84         Cu86   1.965       .  S
O84          C87   1.273       .  A
Cu85       O1582   1.971       .  S
Cu85       O1583   2.059       .  S
Cu85        Cu86   2.374       .  S
Cu86       O1586   2.029       .  S
Cu86       O1587   1.976       .  S
C87         C224   1.448       .  S
C88         C252   1.448       .  S
C89         C238   1.508       .  S
C90         C210   1.508       .  S
C91          C92   1.521       .  S
C91          C97   1.547       .  S
C91          C95   1.531       .  S
C91         C255   1.515       .  S
C92          H99   1.076       .  S
C92         C469   1.360       .  D
C93          C94   1.567       .  S
C93         C468   1.360       .  D
C93         C393   1.471       .  S
C94          C98   1.556       .  S
C94          C96   1.560       .  S
C94         H100   1.111       .  S
C95         H101   1.076       .  S
C95         C472   1.350       .  D
C96         C471   1.348       .  D
C96         C510   1.484       .  S
C97         H478   1.086       .  S
C97         C474   1.358   1_554  D
C98         C473   1.358       .  D
C98         C241   1.521       .  S
H102        C473   1.086       .  S
C103        C104   1.513       .  S
C103        C109   1.554       .  S
C103        C107   1.517       .  S
C103        C227   1.513       .  S
C104        H111   1.086       .  S
C104        C481   1.356       .  D
C105        C106   1.565   1_556  S
C105        C480   1.356       .  D
C105        C431   1.481   1_556  S
C106        C110   1.557       .  S
C106        C108   1.572   1_554  S
C106        H112   1.110       .  S
C107        H113   1.080       .  S
C107        C484   1.353       .  D
C108        C483   1.353       .  D
C108        C522   1.486   1_556  S
C109        H490   1.084       .  S
C109        C486   1.365       .  D
C110        C485   1.366   1_554  D
C110        C213   1.529       .  S
H114        C485   1.084       .  S
O115      Cu1627   2.043       .  S
O115        C125   1.281       .  A
O116       Cu123   2.038       .  S
O116        C126   1.280       .  A
O117       Cu123   1.980       .  S
O117        C127   1.276       .  A
O118      Cu1627   1.964       .  S
O118        C128   1.273       .  A
O119      Cu1628   1.954       .  S
O119        C128   1.271       .  A
O120       Cu124   1.953       .  S
O120        C127   1.270       .  A
O121       Cu124   2.058       .  S
O121        C126   1.285       .  A
O122      Cu1628   2.066       .  S
O122        C125   1.285       .  A
Cu123      O1619   2.032       .  S
Cu123      O1622   1.963       .  S
Cu123      Cu124   2.374       .  S
Cu124      O1623   1.956       .  S
Cu124      O1626   2.063       .  S
C125        C196   1.512       .  S
C126        C154   1.507       .  S
C127        C168   1.448       .  S
C128        C182   1.442       .  S
C129        C130   1.508       .  S
C129        C135   1.552       .  S
C129        C133   1.519       .  S
C129        C185   1.504       .  S
C130        H137   1.086       .  S
C130        C507   1.351       .  D
C131        C132   1.564       .  S
C131        C506   1.354   1_554  D
C131        C405   1.476       .  S
C132        C136   1.562       .  S
C132        C134   1.566   1_554  S
C132        H138   1.109       .  S
C133        H139   1.081       .  S
C133        C510   1.353       .  D
C134        C509   1.353       .  D
C134        C472   1.482   1_556  S
C135        H516   1.084       .  S
C135        C512   1.366       .  D
C136        C511   1.368   1_554  D
C136        C199   1.534       .  S
H140        C511   1.083       .  S
C141        C142   1.515       .  S
C141        C147   1.536   1_554  S
C141        C145   1.535       .  S
C141        C171   1.506       .  S
C142        H149   1.077       .  S
C142        C519   1.353       .  D
C143        C144   1.573       .  S
C143        C518   1.354       .  D
C143        C443   1.479       .  S
C144        C148   1.564       .  S
C144        C146   1.559       .  S
C144        H150   1.110       .  S
C145        H151   1.077       .  S
C145        C522   1.352       .  D
C146        C521   1.352       .  D
C146        C484   1.484       .  S
C147        H528   1.087       .  S
C147        C524   1.358       .  D
C148        C523   1.359       .  D
C148        C157   1.523       .  S
H152        C523   1.087       .  S
C153        C154   1.402       .  A
C153        C158   1.411       .  A
C153        H160   1.084       .  S
C154        C155   1.421       .  A
C155        C156   1.419       .  A
C155        N162   1.437       .  S
C156        C157   1.413       .  A
C156        H161   1.084       .  S
C157        C158   1.412       .  A
C158        N159   1.418       .  S
N159        O163   1.262       .  A
N159        O164   1.262       .  A
N162        O166   1.263       .  A
N162        O165   1.263       .  A
C167        C168   1.401       .  A
C167        C172   1.399       .  A
C167        H174   1.084       .  S
C168        C169   1.400       .  A
C169        C170   1.374       .  A
C169        N176   1.425       .  S
C170        C171   1.402       .  A
C170        H175   1.085       .  S
C171        C172   1.419       .  A
C172        N173   1.435       .  S
N173        O177   1.263       .  A
N173        O178   1.263       .  A
N176        O180   1.262       .  A
N176        O179   1.259       .  A
C181        C182   1.396       .  A
C181        C186   1.391       .  A
C181        H188   1.083       .  S
C182        C183   1.404       .  A
C183        C184   1.383       .  A
C183        N190   1.431       .  S
C184        C185   1.404       .  A
C184        H189   1.083       .  S
C185        C186   1.417       .  A
C186        N187   1.438       .  S
N187        O191   1.263       .  A
N187        O192   1.263       .  A
N190        O194   1.262       .  A
N190        O193   1.262       .  A
C195        C196   1.404       .  A
C195        C200   1.416       .  A
C195        H202   1.083       .  S
C196        C197   1.421       .  A
C197        C198   1.419       .  A
C197        N204   1.438       .  S
C198        C199   1.409       .  A
C198        H203   1.076       .  S
C199        C200   1.428       .  A
C200        N201   1.437       .  S
N201        O205   1.263       .  A
N201        O582   1.263       .  A
N204        O208   1.262       .  A
N204        O207   1.263       .  A
O206        N577   1.263       .  A
C209        C210   1.401       .  A
C209        C214   1.412       .  A
C209        H216   1.084       .  S
C210        C211   1.422       .  A
C211        C212   1.419       .  A
C211        N218   1.438       .  S
C212        C213   1.408       .  A
C212        H217   1.078       .  S
C213        C214   1.425       .  A
C214        N215   1.432       .  S
N215        O219   1.263       .  A
N215        O220   1.261       .  A
N218        O222   1.262       .  A
N218        O221   1.263       .  A
C223        C224   1.398       .  A
C223        C228   1.394       .  A
C223        H230   1.083       .  S
C224        C225   1.405       .  A
C225        C226   1.386       .  A
C225        N232   1.436       .  S
C226        C227   1.406       .  A
C226        H231   1.081       .  S
C227        C228   1.418       .  A
C228        N229   1.439       .  S
N229        O233   1.263       .  A
N229        O234   1.263       .  A
N232        O236   1.262       .  A
N232        O235   1.263       .  A
C237        C238   1.403       .  A
C237        C242   1.409       .  A
C237        H244   1.084       .  S
C238        C239   1.420       .  A
C239        C240   1.423       .  A
C239        N246   1.436       .  S
C240        C241   1.409       .  A
C240        H245   1.079       .  S
C241        C242   1.423       .  A
C242        N243   1.431       .  S
N243        O247   1.261       .  A
N243        O248   1.261       .  A
N246        O250   1.262       .  A
N246        O249   1.263       .  A
C251        C252   1.398       .  A
C251        C256   1.402       .  A
C251        H258   1.084       .  S
C252        C253   1.394       .  A
C253        C254   1.372       .  A
C253        N260   1.423       .  S
C254        C255   1.406       .  A
C254        H259   1.084       .  S
C255        C256   1.421       .  A
C256        N257   1.425       .  S
N257        O261   1.262       .  A
N257        O262   1.262       .  A
N260        O264   1.262       .  A
N260        O263   1.259       .  A
C265        C266   1.406       .  A
C265        C270   1.420       .  A
C265        H272   1.084       .  S
C266        C267   1.407       .  A
C267        C268   1.405       .  A
C267        N274   1.432       .  S
C268        C269   1.418       .  A
C268        H273   1.080       .  S
C269        C270   1.422       .  A
C270        N271   1.428       .  S
N271        O275   1.262       .  A
N271        O276   1.259       .  A
N274        O278   1.262       .  A
N274        O277   1.262       .  A
C279        C280   1.403       .  A
C279        C284   1.381       .  A
C279        H286   1.085       .  S
C280        C281   1.422       .  A
C281        C282   1.393       .  A
C281        N288   1.432       .  S
C282        C283   1.395       .  A
C282        H287   1.083       .  S
C283        C284   1.394       .  A
C284        N285   1.433       .  S
N285        O289   1.262       .  A
N285        O290   1.262       .  A
N288        O292   1.262       .  A
N288        O291   1.262       .  A
C293        C294   1.407       .  A
C293        C298   1.417       .  A
C293        H300   1.081       .  S
C294        C295   1.423       .  A
C295        C296   1.404       .  A
C295        N302   1.437       .  S
C296        C297   1.403       .  A
C296        H301   1.083       .  S
C297        C298   1.422       .  A
C298        N299   1.431       .  S
N299        O303   1.261       .  A
N299        O304   1.262       .  A
N302        O306   1.260       .  A
N302        O305   1.263       .  A
C307        C308   1.389       .  A
C307        C312   1.378       .  A
C307        H314   1.085       .  S
C308        C309   1.402       .  A
C309        C310   1.395       .  A
C309        N316   1.430       .  S
C310        C311   1.409       .  A
C310        H315   1.078       .  S
C311        C312   1.424       .  A
C312        N313   1.435       .  S
N313        O317   1.262       .  A
N313        O318   1.262       .  A
N316        O320   1.262       .  A
N316        O319   1.262       .  A
C321        C322   1.416       .  A
C321        C326   1.408       .  A
C321        H328   1.082       .  S
C322        C323   1.427       .  A
C323        C324   1.417       .  A
C323        N330   1.431       .  S
C324        C325   1.406       .  A
C324        H329   1.084       .  S
C325        C326   1.411       .  A
C326        N327   1.432       .  S
N327        O331   1.262       .  A
N327        O332   1.262       .  A
N330        O334   1.263       .  A
N330        O333   1.262       .  A
C335        C336   1.396       .  A
C335        C340   1.398       .  A
C335        H342   1.084       .  S
C336        C337   1.406       .  A
C337        C338   1.392       .  A
C337        N344   1.437       .  S
C338        C339   1.409       .  A
C338        H343   1.081       .  S
C339        C340   1.425       .  A
C340        N341   1.448       .  S
N341        O345   1.264       .  A
N341        O346   1.260       .  A
N344        O348   1.262       .  A
N344        O347   1.263       .  A
C349        C350   1.391       .  A
C349        C354   1.395       .  A
C349        H356   1.084       .  S
C350        C351   1.399       .  A
C351        C352   1.386       .  A
C351        N358   1.433       .  S
C352        C353   1.408       .  A
C352        H357   1.079       .  S
C353        C354   1.428       .  A
C354        N355   1.437       .  S
N355        O359   1.262       .  A
N355        O360   1.262       .  A
N358        O362   1.262   1_545  A
N358        O361   1.262   1_545  A
C363        C364   1.408       .  A
C363        C368   1.419       .  A
C363        H370   1.084       .  S
C364        C365   1.414       .  A
C365        C366   1.410       .  A
C365        N372   1.434       .  S
C366        C367   1.415       .  A
C366        H371   1.083       .  S
C367        C368   1.425       .  A
C368        N369   1.431       .  S
N369        O373   1.261       .  A
N369        O374   1.263       .  A
N372        O376   1.262       .  A
N372        O375   1.262       .  A
O377       Cu385   1.970   1_545  S
O377        C387   1.272       .  A
O378      Cu1137   1.973       .  S
O378        C388   1.273       .  A
O379      Cu1137   2.040       .  S
O379        C389   1.282       .  A
O380       Cu385   2.045   1_545  S
O380        C390   1.281       .  A
O381      Cu1138   2.049   1_545  S
O381        C390   1.284       .  A
O382       Cu386   2.060       .  S
O382        C389   1.284       .  A
O383       Cu386   1.967       .  S
O383        C388   1.273       .  A
O384      Cu1138   1.965   1_545  S
O384        C387   1.272       .  A
Cu385      O1130   1.977       .  S
Cu385      O1131   2.049       .  S
Cu385     Cu1138   2.373       .  S
Cu386      O1133   2.060       .  S
Cu386      O1136   1.967       .  S
Cu386     Cu1137   2.372       .  S
C387        C726   1.440       .  S
C388        C712   1.446       .  S
C389        C701   1.508       .  S
C390        C740   1.513       .  S
C391        C392   1.524       .  S
C391        C397   1.546       .  S
C391        C395   1.509       .  S
C391        C729   1.510       .  S
C392        H399   1.083       .  S
C393        C394   1.559       .  S
C394        C398   1.564       .  S
C394        C396   1.569       .  S
C394        H400   1.104       .  S
C395        H401   1.077       .  S
C398        C743   1.530       .  S
C403        C404   1.522       .  S
C403        C409   1.548       .  S
C403        C407   1.520       .  S
C403        C715   1.517       .  S
C404        H411   1.078       .  S
C405        C406   1.563   1_554  S
C406        C410   1.559       .  S
C406        C408   1.568   1_556  S
C406        H412   1.101       .  S
C407        H413   1.080       .  S
C410        C698   1.544       .  S
O415      Cu1175   2.030       .  S
O415        C425   1.279       .  A
O416       Cu423   2.058       .  S
O416        C426   1.283       .  A
O417       Cu423   1.958       .  S
O417        C427   1.270       .  A
O418      Cu1175   1.952       .  S
O418        C428   1.273       .  A
O419      Cu1176   1.980       .  S
O419        C428   1.273       .  A
O420       Cu424   1.980       .  S
O420        C427   1.275       .  A
O421       Cu424   2.034       .  S
O421        C426   1.281       .  A
O422      Cu1176   2.035       .  S
O422        C425   1.283       .  A
Cu423      O1167   2.048       .  S
Cu423      O1170   1.952       .  S
Cu423      Cu424   2.375       .  S
Cu424      O1171   1.975       .  S
Cu424      O1174   2.030       .  S
C425        C673   1.500       .  S
C426        C642   1.502       .  S
C427        C659   1.440       .  S
C428        C684   1.441       .  S
C429        C430   1.530       .  S
C429        C435   1.531       .  S
C429        C433   1.515       .  S
C429        C687   1.511       .  S
C430        H437   1.080       .  S
C431        C432   1.569   1_554  S
C432        C436   1.559       .  S
C432        C434   1.568   1_556  S
C432        H438   1.110       .  S
C433        H439   1.072       .  S
C436        C670   1.520       .  S
C441        C442   1.531       .  S
C441        C447   1.534       .  S
C441        C445   1.505       .  S
C441        C656   1.514       .  S
C442        H449   1.077       .  S
C443        C444   1.561       .  S
C444        C448   1.567       .  S
C444        C446   1.556       .  S
C444        H450   1.101       .  S
C445        H451   1.070       .  S
C448        C645   1.538       .  S
O453       Cu461   1.978       .  S
O453        C463   1.274       .  A
O454      Cu1965   1.968   1_455  S
O454        C464   1.270       .  A
O455      Cu1965   2.050   1_455  S
O455        C465   1.284       .  A
O456       Cu461   2.065       .  S
O456        C466   1.285       .  A
O457       Cu462   2.025       .  S
O457        C466   1.278       .  A
O458      Cu1966   2.028   1_455  S
O458        C465   1.279       .  A
O459      Cu1966   1.979   1_455  S
O459        C464   1.277       .  A
O460       Cu462   1.962       .  S
O460        C463   1.273       .  A
Cu461      O1958   1.973       .  S
Cu461      O1959   2.059       .  S
Cu461      Cu462   2.373       .  S
Cu462      O1962   2.027       .  S
Cu462      O1963   1.972       .  S
C463        C600   1.449       .  S
C464        C628   1.449       .  S
C465        C614   1.498       .  S
C466        C586   1.507       .  S
C467        C468   1.518       .  S
C467        C473   1.552       .  S
C467        C471   1.525       .  S
C467        C631   1.511       .  S
C468        H475   1.080       .  S
C469        C470   1.558   1_554  S
C470        C474   1.552       .  S
C470        C472   1.555   1_556  S
C470        H476   1.111       .  S
C471        H477   1.075       .  S
C474        C617   1.509       .  S
C479        C480   1.511       .  S
C479        C485   1.554       .  S
C479        C483   1.519       .  S
C479        C603   1.513       .  S
C480        H487   1.086       .  S
C481        C482   1.566       .  S
C482        C486   1.557       .  S
C482        C484   1.572       .  S
C482        H488   1.110       .  S
C483        H489   1.080       .  S
C486        C589   1.529       .  S
O491      Cu2003   2.038       .  S
O491        C501   1.280       .  A
O492       Cu499   2.043       .  S
O492        C502   1.281       .  A
O493       Cu499   1.983       .  S
O493        C503   1.275       .  A
O494      Cu2003   1.972       .  S
O494        C504   1.275       .  A
O495      Cu2004   1.968       .  S
O495        C504   1.271       .  A
O496       Cu500   1.955       .  S
O496        C503   1.270       .  A
O497       Cu500   2.060       .  S
O497        C502   1.285       .  A
O498      Cu2004   2.068       .  S
O498        C501   1.286       .  A
Cu499      O1995   2.040       .  S
Cu499      O1998   1.973       .  S
Cu499      Cu500   2.373       .  S
Cu500      O1999   1.968       .  S
Cu500      O2002   2.064       .  S
C501        C572   1.509       .  S
C502        C530   1.510       .  S
C503        C544   1.451       .  S
C504        C558   1.450       .  S
C505        C506   1.510       .  S
C505        C511   1.552       .  S
C505        C509   1.518       .  S
C505        C561   1.509       .  S
C506        H513   1.085       .  S
C507        C508   1.559       .  S
C508        C512   1.561       .  S
C508        C510   1.570       .  S
C508        H514   1.110       .  S
C509        H515   1.083       .  S
C512        C575   1.533       .  S
C517        C518   1.518       .  S
C517        C523   1.543       .  S
C517        C521   1.533       .  S
C517        C547   1.510       .  S
C518        H525   1.077       .  S
C519        C520   1.574   1_554  S
C520        C524   1.565       .  S
C520        C522   1.560   1_556  S
C520        H526   1.110       .  S
C521        H527   1.076       .  S
C524        C533   1.518       .  S
C529        C530   1.408       .  A
C529        C534   1.416       .  A
C529        H536   1.084       .  S
C530        C531   1.421       .  A
C531        C532   1.415       .  A
C531        N538   1.437       .  S
C532        C533   1.411       .  A
C532        H537   1.084       .  S
C533        C534   1.412       .  A
C534        N535   1.424       .  S
N535        O539   1.262       .  A
N535        O540   1.261       .  A
N538        O542   1.263       .  A
N538        O541   1.262       .  A
C543        C544   1.401       .  A
C543        C548   1.398       .  A
C543        H550   1.084       .  S
C544        C545   1.401       .  A
C545        C546   1.376       .  A
C545        N552   1.426       .  S
C546        C547   1.403       .  A
C546        H551   1.085       .  S
C547        C548   1.419       .  A
C548        N549   1.431       .  S
N549        O553   1.263       .  A
N549        O554   1.263       .  A
N552        O556   1.263       .  A
N552        O555   1.258       .  A
C557        C558   1.397       .  A
C557        C562   1.392       .  A
C557        H564   1.083       .  S
C558        C559   1.405       .  A
C559        C560   1.387       .  A
C559        N566   1.431       .  S
C560        C561   1.405       .  A
C560        H565   1.083       .  S
C561        C562   1.420       .  A
C562        N563   1.439       .  S
N563        O567   1.263       .  A
N563        O568   1.262       .  A
N566        O570   1.262       .  A
N566        O569   1.262       .  A
C571        C572   1.403       .  A
C571        C576   1.415       .  A
C571        H578   1.084       .  S
C572        C573   1.419       .  A
C573        C574   1.418       .  A
C573        N580   1.437       .  S
C574        C575   1.409       .  A
C574        H579   1.076       .  S
C575        C576   1.429       .  A
C576        N577   1.436       .  S
N577        O581   1.263       .  A
N580        O584   1.262       .  A
N580        O583   1.263       .  A
C585        C586   1.402       .  A
C585        C590   1.413       .  A
C585        H592   1.084       .  S
C586        C587   1.421       .  A
C587        C588   1.418       .  A
C587        N594   1.438       .  S
C588        C589   1.408       .  A
C588        H593   1.078       .  S
C589        C590   1.426       .  A
C590        N591   1.434       .  S
N591        O595   1.263       .  A
N591        O596   1.261       .  A
N594        O598   1.262       .  A
N594        O597   1.263       .  A
C599        C600   1.398       .  A
C599        C604   1.393       .  A
C599        H606   1.083       .  S
C600        C601   1.405       .  A
C601        C602   1.388       .  A
C601        N608   1.435       .  S
C602        C603   1.407       .  A
C602        H607   1.081       .  S
C603        C604   1.419       .  A
C604        N605   1.439       .  S
N605        O609   1.263       .  A
N605        O610   1.262       .  A
N608        O612   1.262       .  A
N608        O611   1.263       .  A
C613        C614   1.403       .  A
C613        C618   1.407       .  A
C613        H620   1.084       .  S
C614        C615   1.416       .  A
C615        C616   1.417       .  A
C615        N622   1.434       .  S
C616        C617   1.407       .  A
C616        H621   1.080       .  S
C617        C618   1.420       .  A
C618        N619   1.431       .  S
N619        O623   1.262       .  A
N619        O624   1.261       .  A
N622        O626   1.262       .  A
N622        O625   1.262       .  A
C627        C628   1.402       .  A
C627        C632   1.404       .  A
C627        H634   1.083       .  S
C628        C629   1.394       .  A
C629        C630   1.371       .  A
C629        N636   1.425       .  S
C630        C631   1.405       .  A
C630        H635   1.084       .  S
C631        C632   1.418       .  A
C632        N633   1.431       .  S
N633        O637   1.263       .  A
N633        O638   1.262       .  A
N636        O640   1.262       .  A
N636        O639   1.261       .  A
C641        C642   1.406       .  A
C641        C646   1.422       .  A
C641        H648   1.083       .  S
C642        C643   1.408       .  A
C643        C644   1.405       .  A
C643        N650   1.430       .  S
C644        C645   1.416       .  A
C644        H649   1.082       .  S
C645        C646   1.428       .  A
C646        N647   1.432       .  S
N647        O651   1.262       .  A
N647        O652   1.263       .  A
N650        O654   1.261       .  A
N650        O653   1.262       .  A
C655        C656   1.408       .  A
C655        C660   1.388       .  A
C655        H662   1.073       .  S
C656        C657   1.424       .  A
C657        C658   1.389       .  A
C657        N664   1.435       .  S
C658        C659   1.391       .  A
C658        H663   1.082       .  S
C659        C660   1.396       .  A
C660        N661   1.431       .  S
N661        O665   1.262       .  A
N661        O666   1.262       .  A
N664        O668   1.262       .  A
N664        O667   1.262       .  A
C669        C670   1.408       .  A
C669        C674   1.414       .  A
C669        H676   1.080       .  S
C670        C671   1.425       .  A
C671        C672   1.404       .  A
C671        N678   1.435       .  S
C672        C673   1.399       .  A
C672        H677   1.083       .  S
C673        C674   1.416       .  A
C674        N675   1.428       .  S
N675        O679   1.261       .  A
N675        O680   1.262       .  A
N678        O682   1.260       .  A
N678        O681   1.263       .  A
C683        C684   1.391       .  A
C683        C688   1.378       .  A
C683        H690   1.086       .  S
C684        C685   1.407       .  A
C685        C686   1.399       .  A
C685        N692   1.440       .  S
C686        C687   1.411       .  A
C686        H691   1.076       .  S
C687        C688   1.422       .  A
C688        N689   1.435       .  S
N689        O693   1.262       .  A
N689        O694   1.262       .  A
N692        O696   1.263       .  A
N692        O695   1.263       .  A
C697        C698   1.415       .  A
C697        C702   1.408       .  A
C697        H704   1.082       .  S
C698        C699   1.430       .  A
C699        C700   1.421       .  A
C699        N706   1.432       .  S
C700        C701   1.406       .  A
C700        H705   1.084       .  S
C701        C702   1.412       .  A
C702        N703   1.430       .  S
N703        O707   1.262       .  A
N703        O708   1.262       .  A
N706        O710   1.263       .  A
N706        O709   1.262       .  A
C711        C712   1.394       .  A
C711        C716   1.393       .  A
C711        H718   1.085       .  S
C712        C713   1.405       .  A
C713        C714   1.385       .  A
C713        N720   1.438       .  S
C714        C715   1.410       .  A
C714        H719   1.085       .  S
C715        C716   1.423       .  A
C716        N717   1.429       .  S
N717        O721   1.262       .  A
N717        O722   1.263       .  A
N720        O724   1.261       .  A
N720        O723   1.263       .  A
C725        C726   1.395       .  A
C725        C730   1.396       .  A
C725        H732   1.084       .  S
C726        C727   1.399       .  A
C727        C728   1.383       .  A
C727        N734   1.433       .  S
C728        C729   1.409       .  A
C728        H733   1.083       .  S
C729        C730   1.422       .  A
C730        N731   1.437       .  S
N731        O735   1.262       .  A
N731        O736   1.262       .  A
N734        O738   1.262   1_545  A
N734        O737   1.261       .  A
C739        C740   1.407       .  A
C739        C744   1.417       .  A
C739        H746   1.084       .  S
C740        C741   1.419       .  A
C741        C742   1.413       .  A
C741        N748   1.435       .  S
C742        C743   1.412       .  A
C742        H747   1.084       .  S
C743        C744   1.424       .  A
C744        N745   1.432       .  S
N745        O749   1.261       .  A
N745        O750   1.263       .  A
N748        O752   1.262       .  A
N748        O751   1.262       .  A
O753       Cu761   1.960       .  S
O753        C763   1.273       .  A
O754        C764   1.270       .  A
O755        C765   1.284       .  A
O756       Cu761   2.055       .  S
O756        C766   1.284       .  A
O757        C766   1.282       .  A
O758       Cu762   2.038       .  S
O758        C765   1.281       .  A
O759       Cu762   1.966       .  S
O759        C764   1.276       .  A
O760        C763   1.274       .  A
C763       C1102   1.451       .  S
C764       C1088   1.451       .  S
C765       C1077   1.517       .  S
C766       C1116   1.511       .  S
C767        C768   1.527       .  S
C767        C773   1.546       .  S
C767        C771   1.521       .  S
C767       C1105   1.521       .  S
C768        H775   1.076       .  S
C768       C1145   1.351       .  D
C769        C770   1.557   1_556  S
C769       C1144   1.356       .  D
C769       C1221   1.470   1_556  S
C770        C774   1.568       .  S
C770        C772   1.565   1_554  S
C770        H776   1.103       .  S
C771        H777   1.077       .  S
C771       C1148   1.349       .  D
C772       C1147   1.350       .  D
C772       C1186   1.484   1_556  S
C773       H1154   1.086       .  S
C773       C1150   1.375       .  D
C774       C1149   1.367       .  D
C774       C1119   1.536       .  S
H778       C1149   1.087       .  S
C779        C780   1.508       .  S
C779        C785   1.556       .  S
C779        C783   1.529       .  S
C779       C1091   1.516       .  S
C780        H787   1.087       .  S
C780       C1157   1.349       .  D
C781        C782   1.563       .  S
C781       C1156   1.349       .  D
C781       C1259   1.475       .  S
C782        C786   1.565       .  S
C782        C784   1.563       .  S
C782        H788   1.101       .  S
C783        H789   1.086       .  S
C783       C1160   1.361       .  D
C784       C1159   1.359       .  D
C784       C1198   1.485       .  S
C785       H1166   1.082       .  S
C785       C1162   1.373   1_554  D
C786       C1161   1.370       .  D
C786       C1074   1.539       .  S
H790       C1161   1.076       .  S
O791        C801   1.280       .  A
O792       Cu799   2.058   1_565  S
O792        C802   1.283       .  A
O793       Cu799   1.958   1_565  S
O793        C803   1.271       .  A
O794        C804   1.274       .  A
O795        C804   1.272       .  A
O796       Cu800   1.981   1_565  S
O796        C803   1.275       .  A
O797       Cu800   2.038   1_565  S
O797        C802   1.281       .  A
O798        C801   1.282       .  A
Cu799      Cu800   2.374       .  S
C801       C1049   1.499       .  S
C802       C1018   1.503       .  S
C803       C1035   1.440       .  S
C804       C1060   1.445       .  S
C805        C806   1.530       .  S
C805        C811   1.529   1_554  S
C805        C809   1.516       .  S
C805       C1063   1.508       .  S
C806        H813   1.081       .  S
C806       C1183   1.365       .  D
C807        C808   1.566       .  S
C807       C1182   1.366       .  D
C807       C1233   1.479       .  S
C808        C812   1.558       .  S
C808        C810   1.564       .  S
C808        H814   1.110       .  S
C809        H815   1.074       .  S
C809       C1186   1.345       .  D
C810       C1185   1.345       .  D
C810       C1148   1.482       .  S
C811       H1192   1.084       .  S
C811       C1188   1.359       .  D
C812       C1187   1.359       .  D
C812       C1046   1.517       .  S
H816       C1187   1.084       .  S
C817        C818   1.535       .  S
C817        C823   1.536       .  S
C817        C821   1.512       .  S
C817       C1032   1.518       .  S
C818        H825   1.071       .  S
C818       C1195   1.350       .  D
C819        C820   1.570   1_556  S
C819       C1194   1.354       .  D
C819       C1271   1.485       .  S
C820        C824   1.570       .  S
C820        C822   1.556       .  S
C820        H826   1.102       .  S
C821        H827   1.079       .  S
C821       C1198   1.349       .  D
C822       C1197   1.352   1_554  D
C822       C1160   1.484       .  S
C823       H1204   1.084       .  S
C823       C1200   1.372       .  D
C824       C1199   1.372   1_554  D
C824       C1021   1.541       .  S
H828       C1199   1.079       .  S
O829       Cu837   1.985       .  S
O829        C839   1.275       .  A
O830      Cu2341   1.971   1_455  S
O830        C840   1.272       .  A
O831      Cu2341   2.062   1_455  S
O831        C841   1.284       .  A
O832       Cu837   2.071       .  S
O832        C842   1.286       .  A
O833       Cu838   2.039       .  S
O833        C842   1.280       .  A
O834      Cu2342   2.040   1_455  S
O834        C841   1.281       .  A
O835      Cu2342   1.977   1_455  S
O835        C840   1.276       .  A
O836       Cu838   1.959       .  S
O836        C839   1.272       .  A
Cu837      O2334   1.980       .  S
Cu837      O2335   2.069       .  S
Cu837      Cu838   2.371       .  S
Cu838      O2338   2.038       .  S
Cu838      O2339   1.966       .  S
C839        C976   1.453       .  S
C840       C1004   1.451       .  S
C841        C990   1.506       .  S
C842        C962   1.515       .  S
C843        C844   1.519       .  S
C843        C849   1.545       .  S
C843        C847   1.533       .  S
C843       C1007   1.515       .  S
C844        H851   1.076       .  S
C844       C1221   1.356       .  D
C845        C846   1.564       .  S
C845       C1220   1.354       .  D
C845       C1145   1.466       .  S
C846        C850   1.556       .  S
C846        C848   1.557       .  S
C846        H852   1.111       .  S
C847        H853   1.074       .  S
C847       C1224   1.354       .  D
C848       C1223   1.352       .  D
C848       C1262   1.487       .  S
C849       H1230   1.087       .  S
C849       C1226   1.359   1_554  D
C850       C1225   1.362       .  D
C850        C993   1.524       .  S
H854       C1225   1.086       .  S
C855        C856   1.513       .  S
C855        C861   1.554       .  S
C855        C859   1.521       .  S
C855        C979   1.514       .  S
C856        H863   1.086       .  S
C856       C1233   1.354       .  D
C857        C858   1.571   1_556  S
C857       C1232   1.355       .  D
C857       C1183   1.484   1_556  S
C858        C862   1.559       .  S
C858        C860   1.574   1_554  S
C858        H864   1.109       .  S
C859        H865   1.078       .  S
C859       C1236   1.355       .  D
C860       C1235   1.352       .  D
C860       C1274   1.489   1_556  S
C861       H1242   1.084       .  S
C861       C1238   1.368       .  D
C862       C1237   1.368   1_554  D
C862        C965   1.533       .  S
H866       C1237   1.084       .  S
O867      Cu2379   2.036       .  S
O867        C877   1.280       .  A
O868       Cu875   2.046       .  S
O868        C878   1.281       .  A
O869       Cu875   1.980       .  S
O869        C879   1.276       .  A
O870      Cu2379   1.959       .  S
O870        C880   1.273       .  A
O871      Cu2380   1.967       .  S
O871        C880   1.272       .  A
O872       Cu876   1.962       .  S
O872        C879   1.271       .  A
O873       Cu876   2.063       .  S
O873        C878   1.286       .  A
O874      Cu2380   2.063       .  S
O874        C877   1.284       .  A
Cu875      O2371   2.042       .  S
Cu875      O2374   1.961       .  S
Cu875      Cu876   2.371       .  S
Cu876      O2375   1.962       .  S
Cu876      O2378   2.064       .  S
C877        C948   1.511       .  S
C878        C906   1.511       .  S
C879        C920   1.454       .  S
C880        C934   1.449       .  S
C881        C882   1.508       .  S
C881        C887   1.556       .  S
C881        C885   1.515       .  S
C881        C937   1.505       .  S
C882        H889   1.087       .  S
C882       C1259   1.352       .  D
C883        C884   1.565       .  S
C883       C1258   1.354   1_554  D
C883       C1157   1.476       .  S
C884        C888   1.560       .  S
C884        C886   1.564       .  S
C884        H890   1.109       .  S
C885        H891   1.080       .  S
C885       C1262   1.354       .  D
C886       C1261   1.354   1_554  D
C886       C1224   1.483       .  S
C887       H1268   1.084       .  S
C887       C1264   1.367       .  D
C888       C1263   1.369   1_554  D
C888        C951   1.532       .  S
H892       C1263   1.084       .  S
C893        C894   1.515       .  S
C893        C899   1.539   1_554  S
C893        C897   1.537       .  S
C893        C923   1.510       .  S
C894        H901   1.076       .  S
C894       C1271   1.354   1_554  D
C895        C896   1.580       .  S
C895       C1270   1.354       .  D
C895       C1195   1.488       .  S
C896        C900   1.567       .  S
C896        C898   1.567       .  S
C896        H902   1.110       .  S
C897        H903   1.077       .  S
C897       C1274   1.353       .  D
C898       C1273   1.350       .  D
C898       C1236   1.493       .  S
C899       H1280   1.087       .  S
C899       C1276   1.359       .  D
C900       C1275   1.361       .  D
C900        C909   1.528       .  S
H904       C1275   1.087       .  S
C905        C906   1.403       .  A
C905        C910   1.413       .  A
C905        H912   1.084       .  S
C906        C907   1.422       .  A
C907        C908   1.420       .  A
C907        N914   1.436       .  S
C908        C909   1.413       .  A
C908        H913   1.084       .  S
C909        C910   1.413       .  A
C910        N911   1.417       .  S
N911        O915   1.262       .  A
N911        O916   1.262       .  A
N914        O918   1.263       .  A
N914        O917   1.263       .  A
C919        C920   1.401       .  A
C919        C924   1.401       .  A
C919        H926   1.084       .  S
C920        C921   1.402       .  A
C921        C922   1.375       .  A
C921        N928   1.424       .  S
C922        C923   1.399       .  A
C922        H927   1.085       .  S
C923        C924   1.421       .  A
C924        N925   1.435       .  S
N925        O929   1.263       .  A
N925        O930   1.263       .  A
N928        O932   1.262       .  A
N928        O931   1.259       .  A
C933        C934   1.399       .  A
C933        C938   1.390       .  A
C933        H940   1.084       .  S
C934        C935   1.409       .  A
C935        C936   1.387       .  A
C935        N942   1.436       .  S
C936        C937   1.404       .  A
C936        H941   1.084       .  S
C937        C938   1.415       .  A
C938        N939   1.439       .  S
N939        O943   1.263       .  A
N939        O944   1.263       .  A
N942        O946   1.263       .  A
N942        O945   1.263       .  A
C947        C948   1.405       .  A
C947        C952   1.417       .  A
C947        H954   1.083       .  S
C948        C949   1.420       .  A
C949        C950   1.418       .  A
C949        N956   1.438       .  S
C950        C951   1.409       .  A
C950        H955   1.076       .  S
C951        C952   1.427       .  A
C952        N953   1.438       .  S
N953        O957   1.263       .  A
N953       O1334   1.263       .  A
N956        O960   1.262       .  A
N956        O959   1.263       .  A
O958       N1329   1.263       .  A
C961        C962   1.404       .  A
C961        C966   1.416       .  A
C961        H968   1.083       .  S
C962        C963   1.423       .  A
C963        C964   1.420       .  A
C963        N970   1.438       .  S
C964        C965   1.409       .  A
C964        H969   1.078       .  S
C965        C966   1.427       .  A
C966        N967   1.435       .  S
N967        O971   1.263       .  A
N967        O972   1.262       .  A
N970        O974   1.262       .  A
N970        O973   1.263       .  A
C975        C976   1.400       .  A
C975        C980   1.394       .  A
C975        H982   1.083       .  S
C976        C977   1.405       .  A
C977        C978   1.388       .  A
C977        N984   1.434       .  S
C978        C979   1.407       .  A
C978        H983   1.081       .  S
C979        C980   1.417       .  A
C980        N981   1.437       .  S
N981        O985   1.263       .  A
N981        O986   1.263       .  A
N984        O988   1.262       .  A
N984        O987   1.262       .  A
C989        C990   1.403       .  A
C989        C994   1.413       .  A
C989        H996   1.084       .  S
C990        C991   1.417       .  A
C991        C992   1.422       .  A
C991        N998   1.434       .  S
C992        C993   1.407       .  A
C992        H997   1.077       .  S
C993        C994   1.425       .  A
C994        N995   1.437       .  S
N995        O999   1.263       .  A
N995       O1000   1.262       .  A
N998       O1002   1.262       .  A
N998       O1001   1.262       .  A
C1003      C1004   1.398       .  A
C1003      C1008   1.400       .  A
C1003      H1010   1.084       .  S
C1004      C1005   1.396       .  A
C1005      C1006   1.373       .  A
C1005      N1012   1.421       .  S
C1006      C1007   1.403       .  A
C1006      H1011   1.085       .  S
C1007      C1008   1.421       .  A
C1008      N1009   1.424       .  S
N1009      O1013   1.262       .  A
N1009      O1014   1.262       .  A
N1012      O1016   1.262       .  A
N1012      O1015   1.258       .  A
C1017      C1018   1.409       .  A
C1017      C1022   1.422       .  A
C1017      H1024   1.083       .  S
C1018      C1019   1.408       .  A
C1019      C1020   1.405       .  A
C1019      N1026   1.432       .  S
C1020      C1021   1.418       .  A
C1020      H1025   1.078       .  S
C1021      C1022   1.422       .  A
C1022      N1023   1.426       .  S
N1023      O1027   1.262       .  A
N1023      O1028   1.257       .  A
N1026      O1030   1.262       .  A
N1026      O1029   1.262       .  A
C1031      C1032   1.408       .  A
C1031      C1036   1.385       .  A
C1031      H1038   1.067       .  S
C1032      C1033   1.421       .  A
C1033      C1034   1.393       .  A
C1033      N1040   1.432       .  S
C1034      C1035   1.396       .  A
C1034      H1039   1.085       .  S
C1035      C1036   1.393       .  A
C1036      N1037   1.430       .  S
N1037      O1041   1.262       .  A
N1037      O1042   1.262       .  A
N1040      O1044   1.262       .  A
N1040      O1043   1.262       .  A
C1045      C1046   1.407       .  A
C1045      C1050   1.417       .  A
C1045      H1052   1.079       .  S
C1046      C1047   1.424       .  A
C1047      C1048   1.402       .  A
C1047      N1054   1.436       .  S
C1048      C1049   1.400       .  A
C1048      H1053   1.083       .  S
C1049      C1050   1.420       .  A
C1050      N1051   1.436       .  S
N1051      O1055   1.262       .  A
N1051      O1056   1.263       .  A
N1054      O1058   1.259       .  A
N1054      O1057   1.263       .  A
C1059      C1060   1.391       .  A
C1059      C1064   1.376       .  A
C1059      H1066   1.086       .  S
C1060      C1061   1.408       .  A
C1061      C1062   1.399       .  A
C1061      N1068   1.437       .  S
C1062      C1063   1.410       .  A
C1062      H1067   1.077       .  S
C1063      C1064   1.422       .  A
C1064      N1065   1.436       .  S
N1065      O1069   1.262       .  A
N1065      O1070   1.262       .  A
N1068      O1072   1.262       .  A
N1068      O1071   1.263       .  A
C1073      C1074   1.416       .  A
C1073      C1078   1.412       .  A
C1073      H1080   1.083       .  S
C1074      C1075   1.424       .  A
C1075      C1076   1.420       .  A
C1075      N1082   1.433       .  S
C1076      C1077   1.411       .  A
C1076      H1081   1.083       .  S
C1077      C1078   1.416       .  A
C1078      N1079   1.433       .  S
N1079      O1083   1.262       .  A
N1079      O1084   1.262       .  A
N1082      O1086   1.263       .  A
N1082      O1085   1.262       .  A
C1087      C1088   1.394       .  A
C1087      C1092   1.394       .  A
C1087      H1094   1.084       .  S
C1088      C1089   1.405       .  A
C1089      C1090   1.394       .  A
C1089      N1096   1.439       .  S
C1090      C1091   1.411       .  A
C1090      H1095   1.081       .  S
C1091      C1092   1.424       .  A
C1092      N1093   1.445       .  S
N1093      O1097   1.264       .  A
N1093      O1098   1.261       .  A
N1096      O1100   1.262       .  A
N1096      O1099   1.263       .  A
C1101      C1102   1.392       .  A
C1101      C1106   1.387       .  A
C1101      H1108   1.085       .  S
C1102      C1103   1.406       .  A
C1103      C1104   1.391       .  A
C1103      N1110   1.435       .  S
C1104      C1105   1.411       .  A
C1104      H1109   1.085       .  S
C1105      C1106   1.420       .  A
C1106      N1107   1.421       .  S
N1107      O1111   1.262       .  A
N1107      O1112   1.262       .  A
N1110      O1114   1.262       .  A
N1110      O1113   1.263       .  A
C1115      C1116   1.408       .  A
C1115      C1120   1.422       .  A
C1115      H1122   1.084       .  S
C1116      C1117   1.410       .  A
C1117      C1118   1.408       .  A
C1117      N1124   1.428       .  S
C1118      C1119   1.415       .  A
C1118      H1123   1.084       .  S
C1119      C1120   1.427       .  A
C1120      N1121   1.432       .  S
N1121      O1125   1.261       .  A
N1121      O1126   1.263       .  A
N1124      O1128   1.261       .  A
N1124      O1127   1.262       .  A
O1129     Cu1137   1.969       .  S
O1129      C1139   1.274       .  A
O1130      C1140   1.273       .  A
O1131      C1141   1.283       .  A
O1132     Cu1137   2.046       .  S
O1132      C1142   1.283       .  A
O1133      C1142   1.284       .  A
O1134     Cu1138   2.041       .  S
O1134      C1141   1.281       .  A
O1135     Cu1138   1.973       .  S
O1135      C1140   1.273       .  A
O1136      C1139   1.273       .  A
C1139      C1478   1.449       .  S
C1140      C1464   1.443       .  S
C1141      C1453   1.509       .  S
C1142      C1492   1.514       .  S
C1143      C1144   1.530       .  S
C1143      C1149   1.540   1_556  S
C1143      C1147   1.522       .  S
C1143      C1481   1.521       .  S
C1144      H1151   1.073       .  S
C1145      C1146   1.555       .  S
C1146      C1150   1.568       .  S
C1146      C1148   1.563       .  S
C1146      H1152   1.102       .  S
C1147      H1153   1.075       .  S
C1150      C1495   1.542       .  S
C1155      C1156   1.506       .  S
C1155      C1161   1.553       .  S
C1155      C1159   1.528       .  S
C1155      C1467   1.520       .  S
C1156      H1163   1.080       .  S
C1157      C1158   1.562   1_554  S
C1158      C1162   1.559       .  S
C1158      C1160   1.563   1_556  S
C1158      H1164   1.100       .  S
C1159      H1165   1.081       .  S
C1162      C1450   1.539       .  S
O1167      C1177   1.282       .  A
O1168     Cu1175   2.033   1_565  S
O1168      C1178   1.281       .  A
O1169     Cu1175   1.962   1_565  S
O1169      C1179   1.272       .  A
O1170      C1180   1.274       .  A
O1171      C1180   1.272       .  A
O1172     Cu1176   1.987   1_565  S
O1172      C1179   1.274       .  A
O1173     Cu1176   2.044   1_565  S
O1173      C1178   1.282       .  A
O1174      C1177   1.282       .  A
Cu1175    Cu1176   2.376       .  S
C1177      C1425   1.508       .  S
C1178      C1394   1.499       .  S
C1179      C1411   1.445       .  S
C1180      C1436   1.442       .  S
C1181      C1182   1.533       .  S
C1181      C1187   1.529       .  S
C1181      C1185   1.515       .  S
C1181      C1439   1.508       .  S
C1182      H1189   1.082       .  S
C1183      C1184   1.574   1_554  S
C1184      C1188   1.561       .  S
C1184      C1186   1.567   1_556  S
C1184      H1190   1.110       .  S
C1185      H1191   1.075       .  S
C1188      C1422   1.522       .  S
C1193      C1194   1.533       .  S
C1193      C1199   1.538       .  S
C1193      C1197   1.509       .  S
C1193      C1408   1.520       .  S
C1194      H1201   1.076       .  S
C1195      C1196   1.566       .  S
C1196      C1200   1.571       .  S
C1196      C1198   1.561       .  S
C1196      H1202   1.100       .  S
C1197      H1203   1.076       .  S
C1200      C1397   1.533       .  S
O1205     Cu1213   1.973       .  S
O1205      C1215   1.273       .  A
O1206     Cu2717   1.964   1_455  S
O1206      C1216   1.271       .  A
O1207     Cu2717   2.053   1_455  S
O1207      C1217   1.283       .  A
O1208     Cu1213   2.067       .  S
O1208      C1218   1.285       .  A
O1209     Cu1214   2.029       .  S
O1209      C1218   1.279       .  A
O1210     Cu2718   2.034   1_455  S
O1210      C1217   1.280       .  A
O1211     Cu2718   1.983   1_455  S
O1211      C1216   1.277       .  A
O1212     Cu1214   1.967       .  S
O1212      C1215   1.274       .  A
Cu1213     O2710   1.969       .  S
Cu1213     O2711   2.060       .  S
Cu1213    Cu1214   2.373       .  S
Cu1214     O2714   2.033       .  S
Cu1214     O2715   1.983       .  S
C1215      C1352   1.449       .  S
C1216      C1380   1.450       .  S
C1217      C1366   1.500       .  S
C1218      C1338   1.507       .  S
C1219      C1220   1.516       .  S
C1219      C1225   1.551       .  S
C1219      C1223   1.529       .  S
C1219      C1383   1.513       .  S
C1220      H1227   1.079       .  S
C1221      C1222   1.563   1_554  S
C1222      C1226   1.553       .  S
C1222      C1224   1.554   1_556  S
C1222      H1228   1.111       .  S
C1223      H1229   1.073       .  S
C1226      C1369   1.516       .  S
C1231      C1232   1.511       .  S
C1231      C1237   1.557       .  S
C1231      C1235   1.517       .  S
C1231      C1355   1.513       .  S
C1232      H1239   1.086       .  S
C1233      C1234   1.562       .  S
C1234      C1238   1.560       .  S
C1234      C1236   1.577       .  S
C1234      H1240   1.109       .  S
C1235      H1241   1.080       .  S
C1238      C1341   1.535       .  S
O1243     Cu2755   2.039       .  S
O1243      C1253   1.280       .  A
O1244     Cu1251   2.051       .  S
O1244      C1254   1.282       .  A
O1245     Cu1251   1.991       .  S
O1245      C1255   1.276       .  A
O1246     Cu2755   1.974       .  S
O1246      C1256   1.275       .  A
O1247     Cu2756   1.975       .  S
O1247      C1256   1.272       .  A
O1248     Cu1252   1.950       .  S
O1248      C1255   1.270       .  A
O1249     Cu1252   2.057       .  S
O1249      C1254   1.285       .  A
O1250     Cu2756   2.079       .  S
O1250      C1253   1.287       .  A
Cu1251     O2747   2.037       .  S
Cu1251     O2750   1.968       .  S
Cu1251    Cu1252   2.374       .  S
Cu1252     O2751   1.961       .  S
Cu1252     O2754   2.066       .  S
C1253      C1324   1.517       .  S
C1254      C1282   1.512       .  S
C1255      C1296   1.446       .  S
C1256      C1310   1.454       .  S
C1257      C1258   1.510       .  S
C1257      C1263   1.553       .  S
C1257      C1261   1.519       .  S
C1257      C1313   1.511       .  S
C1258      H1265   1.086       .  S
C1259      C1260   1.570       .  S
C1260      C1264   1.562       .  S
C1260      C1262   1.570       .  S
C1260      H1266   1.109       .  S
C1261      H1267   1.082       .  S
C1264      C1327   1.538       .  S
C1269      C1270   1.516       .  S
C1269      C1275   1.549       .  S
C1269      C1273   1.523       .  S
C1269      C1299   1.511       .  S
C1270      H1277   1.078       .  S
C1271      C1272   1.575       .  S
C1272      C1276   1.567       .  S
C1272      C1274   1.562   1_556  S
C1272      H1278   1.110       .  S
C1273      H1279   1.075       .  S
C1276      C1285   1.522       .  S
C1281      C1282   1.407       .  A
C1281      C1286   1.417       .  A
C1281      H1288   1.084       .  S
C1282      C1283   1.417       .  A
C1283      C1284   1.416       .  A
C1283      N1290   1.432       .  S
C1284      C1285   1.413       .  A
C1284      H1289   1.084       .  S
C1285      C1286   1.414       .  A
C1286      N1287   1.425       .  S
N1287      O1291   1.262       .  A
N1287      O1292   1.262       .  A
N1290      O1294   1.262       .  A
N1290      O1293   1.262       .  A
C1295      C1296   1.396       .  A
C1295      C1300   1.395       .  A
C1295      H1302   1.085       .  S
C1296      C1297   1.395       .  A
C1297      C1298   1.376       .  A
C1297      N1304   1.421       .  S
C1298      C1299   1.405       .  A
C1298      H1303   1.085       .  S
C1299      C1300   1.420       .  A
C1300      N1301   1.425       .  S
N1301      O1305   1.262       .  A
N1301      O1306   1.262       .  A
N1304      O1308   1.262       .  A
N1304      O1307   1.259       .  A
C1309      C1310   1.397       .  A
C1309      C1314   1.393       .  A
C1309      H1316   1.083       .  S
C1310      C1311   1.406       .  A
C1311      C1312   1.389       .  A
C1311      N1318   1.431       .  S
C1312      C1313   1.406       .  A
C1312      H1317   1.083       .  S
C1313      C1314   1.420       .  A
C1314      N1315   1.439       .  S
N1315      O1319   1.263       .  A
N1315      O1320   1.262       .  A
N1318      O1322   1.262       .  A
N1318      O1321   1.262       .  A
C1323      C1324   1.405       .  A
C1323      C1328   1.420       .  A
C1323      H1330   1.083       .  S
C1324      C1325   1.421       .  A
C1325      C1326   1.420       .  A
C1325      N1332   1.438       .  S
C1326      C1327   1.409       .  A
C1326      H1331   1.075       .  S
C1327      C1328   1.429       .  A
C1328      N1329   1.437       .  S
N1329      O1333   1.263       .  A
N1332      O1336   1.262       .  A
N1332      O1335   1.263       .  A
C1337      C1338   1.400       .  A
C1337      C1342   1.413       .  A
C1337      H1344   1.084       .  S
C1338      C1339   1.419       .  A
C1339      C1340   1.418       .  A
C1339      N1346   1.436       .  S
C1340      C1341   1.410       .  A
C1340      H1345   1.077       .  S
C1341      C1342   1.428       .  A
C1342      N1343   1.432       .  S
N1343      O1347   1.263       .  A
N1343      O1348   1.260       .  A
N1346      O1350   1.262       .  A
N1346      O1349   1.263       .  A
C1351      C1352   1.397       .  A
C1351      C1356   1.394       .  A
C1351      H1358   1.083       .  S
C1352      C1353   1.405       .  A
C1353      C1354   1.387       .  A
C1353      N1360   1.434       .  S
C1354      C1355   1.406       .  A
C1354      H1359   1.081       .  S
C1355      C1356   1.420       .  A
C1356      N1357   1.439       .  S
N1357      O1361   1.263       .  A
N1357      O1362   1.262       .  A
N1360      O1364   1.262       .  A
N1360      O1363   1.262       .  A
C1365      C1366   1.402       .  A
C1365      C1370   1.409       .  A
C1365      H1372   1.084       .  S
C1366      C1367   1.415       .  A
C1367      C1368   1.418       .  A
C1367      N1374   1.431       .  S
C1368      C1369   1.406       .  A
C1368      H1373   1.078       .  S
C1369      C1370   1.423       .  A
C1370      N1371   1.433       .  S
N1371      O1375   1.262       .  A
N1371      O1376   1.261       .  A
N1374      O1378   1.262       .  A
N1374      O1377   1.262       .  A
C1379      C1380   1.399       .  A
C1379      C1384   1.400       .  A
C1379      H1386   1.084       .  S
C1380      C1381   1.394       .  A
C1381      C1382   1.373       .  A
C1381      N1388   1.421       .  S
C1382      C1383   1.404       .  A
C1382      H1387   1.084       .  S
C1383      C1384   1.421       .  A
C1384      N1385   1.428       .  S
N1385      O1389   1.262       .  A
N1385      O1390   1.263       .  A
N1388      O1392   1.262       .  A
N1388      O1391   1.259       .  A
C1393      C1394   1.400       .  A
C1393      C1398   1.414       .  A
C1393      H1400   1.084       .  S
C1394      C1395   1.414       .  A
C1395      C1396   1.414       .  A
C1395      N1402   1.436       .  S
C1396      C1397   1.418       .  A
C1396      H1401   1.083       .  S
C1397      C1398   1.421       .  A
C1398      N1399   1.426       .  S
N1399      O1403   1.261       .  A
N1399      O1404   1.260       .  A
N1402      O1406   1.262       .  A
N1402      O1405   1.262       .  A
C1407      C1408   1.409       .  A
C1407      C1412   1.394       .  A
C1407      H1414   1.074       .  S
C1408      C1409   1.422       .  A
C1409      C1410   1.390       .  A
C1409      N1416   1.435       .  S
C1410      C1411   1.393       .  A
C1410      H1415   1.084       .  S
C1411      C1412   1.401       .  A
C1412      N1413   1.435       .  S
N1413      O1417   1.262       .  A
N1413      O1418   1.262       .  A
N1416      O1420   1.262       .  A
N1416      O1419   1.263       .  A
C1421      C1422   1.408       .  A
C1421      C1426   1.420       .  A
C1421      H1428   1.079       .  S
C1422      C1423   1.423       .  A
C1423      C1424   1.406       .  A
C1423      N1430   1.438       .  S
C1424      C1425   1.403       .  A
C1424      H1429   1.083       .  S
C1425      C1426   1.422       .  A
C1426      N1427   1.436       .  S
N1427      O1431   1.263       .  A
N1427      O1432   1.263       .  A
N1430      O1434   1.260       .  A
N1430      O1433   1.263       .  A
C1435      C1436   1.390       .  A
C1435      C1440   1.376       .  A
C1435      H1442   1.086       .  S
C1436      C1437   1.401       .  A
C1437      C1438   1.396       .  A
C1437      N1444   1.429       .  S
C1438      C1439   1.410       .  A
C1438      H1443   1.078       .  S
C1439      C1440   1.424       .  A
C1440      N1441   1.435       .  S
N1441      O1445   1.262       .  A
N1441      O1446   1.262       .  A
N1444      O1448   1.262       .  A
N1444      O1447   1.262       .  A
C1449      C1450   1.416       .  A
C1449      C1454   1.409       .  A
C1449      H1456   1.082       .  S
C1450      C1451   1.428       .  A
C1451      C1452   1.418       .  A
C1451      N1458   1.432       .  S
C1452      C1453   1.407       .  A
C1452      H1457   1.084       .  S
C1453      C1454   1.413       .  A
C1454      N1455   1.432       .  S
N1455      O1459   1.262       .  A
N1455      O1460   1.262       .  A
N1458      O1462   1.263       .  A
N1458      O1461   1.262       .  A
C1463      C1464   1.394       .  A
C1463      C1468   1.394       .  A
C1463      H1470   1.084       .  S
C1464      C1465   1.400       .  A
C1465      C1466   1.386       .  A
C1465      N1472   1.432       .  S
C1466      C1467   1.407       .  A
C1466      H1471   1.073       .  S
C1467      C1468   1.424       .  A
C1468      N1469   1.436       .  S
N1469      O1473   1.262       .  A
N1469      O1474   1.260       .  A
N1472      O1476   1.262       .  A
N1472      O1475   1.261       .  A
C1477      C1478   1.393       .  A
C1477      C1482   1.390       .  A
C1477      H1484   1.085       .  S
C1478      C1479   1.406       .  A
C1479      C1480   1.388       .  A
C1479      N1486   1.438       .  S
C1480      C1481   1.411       .  A
C1480      H1485   1.085       .  S
C1481      C1482   1.419       .  A
C1482      N1483   1.420       .  S
N1483      O1487   1.261       .  A
N1483      O1488   1.262       .  A
N1486      O1490   1.262       .  A
N1486      O1489   1.263       .  A
C1491      C1492   1.408       .  A
C1491      C1496   1.423       .  A
C1491      H1498   1.084       .  S
C1492      C1493   1.415       .  A
C1493      C1494   1.411       .  A
C1493      N1500   1.432       .  S
C1494      C1495   1.415       .  A
C1494      H1499   1.083       .  S
C1495      C1496   1.430       .  A
C1496      N1497   1.432       .  S
N1497      O1501   1.261       .  A
N1497      O1502   1.263       .  A
N1500      O1504   1.262       .  A
N1500      O1503   1.262       .  A
O1505     Cu1513   1.979   1_545  S
O1505      C1515   1.273       .  A
O1506     Cu2265   1.981       .  S
O1506      C1516   1.272       .  A
O1507     Cu2265   2.055       .  S
O1507      C1517   1.283       .  A
O1508     Cu1513   2.053   1_545  S
O1508      C1518   1.282       .  A
O1509     Cu2266   2.054   1_545  S
O1509      C1518   1.284       .  A
O1510     Cu1514   2.049       .  S
O1510      C1517   1.282       .  A
O1511     Cu1514   1.966       .  S
O1511      C1516   1.274       .  A
O1512     Cu2266   1.962   1_545  S
O1512      C1515   1.273       .  A
Cu1513     O2258   1.980       .  S
Cu1513     O2259   2.060       .  S
Cu1513    Cu2266   2.372       .  S
Cu1514     O2261   2.054       .  S
Cu1514     O2264   1.960       .  S
Cu1514    Cu2265   2.371       .  S
C1515      C1854   1.443       .  S
C1516      C1840   1.450       .  S
C1517      C1829   1.515       .  S
C1518      C1868   1.517       .  S
C1519      C1520   1.519       .  S
C1519      C1525   1.549       .  S
C1519      C1523   1.508       .  S
C1519      C1857   1.509       .  S
C1520      H1527   1.081       .  S
C1520      C1897   1.354       .  D
C1521      C1522   1.564   1_556  S
C1521      C1896   1.353       .  D
C1521      C1973   1.472   1_556  S
C1522      C1526   1.565       .  S
C1522      C1524   1.574   1_554  S
C1522      H1528   1.103       .  S
C1523      H1529   1.077       .  S
C1523      C1900   1.347       .  D
C1524      C1899   1.348       .  D
C1524      C1938   1.487   1_556  S
C1525      H1906   1.085       .  S
C1525      C1902   1.373       .  D
C1526      C1901   1.370   1_554  D
C1526      C1871   1.535       .  S
H1530      C1901   1.086       .  S
C1531      C1532   1.510       .  S
C1531      C1537   1.557       .  S
C1531      C1535   1.531       .  S
C1531      C1843   1.521       .  S
C1532      H1539   1.087       .  S
C1532      C1909   1.350       .  D
C1533      C1534   1.561       .  S
C1533      C1908   1.357       .  D
C1533      C2011   1.474       .  S
C1534      C1538   1.564       .  S
C1534      C1536   1.555       .  S
C1534      H1540   1.101       .  S
C1535      H1541   1.086       .  S
C1535      C1912   1.363       .  D
C1536      C1911   1.346       .  D
C1536      C1950   1.474       .  S
C1537      H1918   1.082       .  S
C1537      C1914   1.371   1_554  D
C1538      C1913   1.372       .  D
C1538      C1826   1.542       .  S
H1542      C1913   1.085       .  S
O1543     Cu2303   2.045       .  S
O1543      C1553   1.281       .  A
O1544     Cu1551   2.057       .  S
O1544      C1554   1.283       .  A
O1545     Cu1551   1.952       .  S
O1545      C1555   1.270       .  A
O1546     Cu2303   1.955       .  S
O1546      C1556   1.274       .  A
O1547     Cu2304   1.982       .  S
O1547      C1556   1.273       .  A
O1548     Cu1552   1.985       .  S
O1548      C1555   1.275       .  A
O1549     Cu1552   2.039       .  S
O1549      C1554   1.282       .  A
O1550     Cu2304   2.037       .  S
O1550      C1553   1.283       .  A
Cu1551     O2295   2.044       .  S
Cu1551     O2298   1.948       .  S
Cu1551    Cu1552   2.374       .  S
Cu1552     O2299   1.983       .  S
Cu1552     O2302   2.033       .  S
C1553      C1801   1.506       .  S
C1554      C1770   1.504       .  S
C1555      C1787   1.440       .  S
C1556      C1812   1.446       .  S
C1557      C1558   1.532       .  S
C1557      C1563   1.530   1_554  S
C1557      C1561   1.518       .  S
C1557      C1815   1.511       .  S
C1558      H1565   1.081       .  S
C1558      C1935   1.364       .  D
C1559      C1560   1.567       .  S
C1559      C1934   1.365       .  D
C1559      C1985   1.480       .  S
C1560      C1564   1.562       .  S
C1560      C1562   1.564       .  S
C1560      H1566   1.110       .  S
C1561      H1567   1.072       .  S
C1561      C1938   1.345       .  D
C1562      C1937   1.344       .  D
C1562      C1900   1.480       .  S
C1563      H1944   1.084       .  S
C1563      C1940   1.360       .  D
C1564      C1939   1.361       .  D
C1564      C1798   1.525       .  S
H1568      C1939   1.083       .  S
C1569      C1570   1.530       .  S
C1569      C1575   1.537       .  S
C1569      C1573   1.509       .  S
C1569      C1784   1.515       .  S
C1570      H1577   1.075       .  S
C1570      C1947   1.351       .  D
C1571      C1572   1.573   1_556  S
C1571      C1946   1.354       .  D
C1571      C2023   1.485   1_556  S
C1572      C1576   1.572       .  S
C1572      C1574   1.556       .  S
C1572      H1578   1.101       .  S
C1573      H1579   1.078       .  S
C1573      C1950   1.348       .  D
C1574      C1949   1.347   1_554  D
C1574      C1912   1.484       .  S
C1575      H1956   1.083       .  S
C1575      C1952   1.373       .  D
C1576      C1951   1.373       .  D
C1576      C1773   1.537       .  S
H1580      C1951   1.081       .  S
O1581     Cu1589   1.974       .  S
O1581      C1591   1.273       .  A
O1582      C1592   1.271       .  A
O1583      C1593   1.285       .  A
O1584     Cu1589   2.071       .  S
O1584      C1594   1.286       .  A
O1585     Cu1590   2.034   1_655  S
O1585      C1594   1.280       .  A
O1586      C1593   1.280       .  A
O1587      C1592   1.276       .  A
O1588     Cu1590   1.964   1_655  S
O1588      C1591   1.273       .  A
Cu1589    Cu1590   2.373   1_655  S
C1591      C1728   1.451       .  S
C1592      C1756   1.449       .  S
C1593      C1742   1.504       .  S
C1594      C1714   1.512       .  S
C1595      C1596   1.522       .  S
C1595      C1601   1.549       .  S
C1595      C1599   1.531       .  S
C1595      C1759   1.516       .  S
C1596      H1603   1.079       .  S
C1596      C1973   1.360       .  D
C1597      C1598   1.561       .  S
C1597      C1972   1.359       .  D
C1597      C1897   1.469       .  S
C1598      C1602   1.555       .  S
C1598      C1600   1.557       .  S
C1598      H1604   1.111       .  S
C1599      H1605   1.074       .  S
C1599      C1976   1.351       .  D
C1600      C1975   1.351       .  D
C1600      C2014   1.484       .  S
C1601      H1982   1.087       .  S
C1601      C1978   1.358   1_554  D
C1602      C1977   1.357       .  D
C1602      C1745   1.517       .  S
H1606      C1977   1.087       .  S
C1607      C1608   1.511       .  S
C1607      C1613   1.554       .  S
C1607      C1611   1.519       .  S
C1607      C1731   1.511       .  S
C1608      H1615   1.087       .  S
C1608      C1985   1.354       .  D
C1609      C1610   1.567   1_556  S
C1609      C1984   1.354       .  D
C1609      C1935   1.481   1_556  S
C1610      C1614   1.559       .  S
C1610      C1612   1.573   1_554  S
C1610      H1616   1.110       .  S
C1611      H1617   1.078       .  S
C1611      C1988   1.354       .  D
C1612      C1987   1.353       .  D
C1612      C2026   1.488   1_556  S
C1613      H1994   1.085       .  S
C1613      C1990   1.367       .  D
C1614      C1989   1.367   1_554  D
C1614      C1717   1.531       .  S
H1618      C1989   1.084       .  S
O1619      C1629   1.280       .  A
O1620     Cu1627   2.046   1_655  S
O1620      C1630   1.281       .  A
O1621     Cu1627   1.980   1_655  S
O1621      C1631   1.276       .  A
O1622      C1632   1.274       .  A
O1623      C1632   1.271       .  A
O1624     Cu1628   1.951   1_655  S
O1624      C1631   1.269       .  A
O1625     Cu1628   2.060   1_655  S
O1625      C1630   1.285       .  A
O1626      C1629   1.285       .  A
Cu1627    Cu1628   2.374       .  S
C1629      C1700   1.508       .  S
C1630      C1658   1.509       .  S
C1631      C1672   1.447       .  S
C1632      C1686   1.444       .  S
C1633      C1634   1.505       .  S
C1633      C1639   1.553       .  S
C1633      C1637   1.514       .  S
C1633      C1689   1.503       .  S
C1634      H1641   1.087       .  S
C1634      C2011   1.351       .  D
C1635      C1636   1.562   1_556  S
C1635      C2010   1.354       .  D
C1635      C1909   1.472   1_556  S
C1636      C1640   1.556       .  S
C1636      C1638   1.566   1_554  S
C1636      H1642   1.109       .  S
C1637      H1643   1.080       .  S
C1637      C2014   1.351       .  D
C1638      C2013   1.353       .  D
C1638      C1976   1.484   1_556  S
C1639      H2020   1.083       .  S
C1639      C2016   1.370       .  D
C1640      C2015   1.368   1_554  D
C1640      C1703   1.529       .  S
H1644      C2015   1.084       .  S
C1645      C1646   1.514       .  S
C1645      C1651   1.537   1_554  S
C1645      C1649   1.535       .  S
C1645      C1675   1.507       .  S
C1646      H1653   1.077       .  S
C1646      C2023   1.352       .  D
C1647      C1648   1.574       .  S
C1647      C2022   1.352       .  D
C1647      C1947   1.480       .  S
C1648      C1652   1.563       .  S
C1648      C1650   1.562       .  S
C1648      H1654   1.110       .  S
C1649      H1655   1.077       .  S
C1649      C2026   1.353       .  D
C1650      C2025   1.353       .  D
C1650      C1988   1.490       .  S
C1651      H2032   1.087       .  S
C1651      C2028   1.359       .  D
C1652      C2027   1.361       .  D
C1652      C1661   1.525       .  S
H1656      C2027   1.087       .  S
C1657      C1658   1.405       .  A
C1657      C1662   1.414       .  A
C1657      H1664   1.084       .  S
C1658      C1659   1.419       .  A
C1659      C1660   1.418       .  A
C1659      N1666   1.435       .  S
C1660      C1661   1.413       .  A
C1660      H1665   1.084       .  S
C1661      C1662   1.412       .  A
C1662      N1663   1.419       .  S
N1663      O1667   1.262       .  A
N1663      O1668   1.262       .  A
N1666      O1670   1.262       .  A
N1666      O1669   1.262       .  A
C1671      C1672   1.400       .  A
C1671      C1676   1.399       .  A
C1671      H1678   1.084       .  S
C1672      C1673   1.401       .  A
C1673      C1674   1.375       .  A
C1673      N1680   1.425       .  S
C1674      C1675   1.401       .  A
C1674      H1679   1.085       .  S
C1675      C1676   1.419       .  A
C1676      N1677   1.435       .  S
N1677      O1681   1.263       .  A
N1677      O1682   1.263       .  A
N1680      O1684   1.262       .  A
N1680      O1683   1.259       .  A
C1685      C1686   1.397       .  A
C1685      C1690   1.389       .  A
C1685      H1692   1.083       .  S
C1686      C1687   1.407       .  A
C1687      C1688   1.385       .  A
C1687      N1694   1.432       .  S
C1688      C1689   1.404       .  A
C1688      H1693   1.084       .  S
C1689      C1690   1.417       .  A
C1690      N1691   1.438       .  S
N1691      O1695   1.263       .  A
N1691      O1696   1.263       .  A
N1694      O1698   1.262       .  A
N1694      O1697   1.262       .  A
C1699      C1700   1.404       .  A
C1699      C1704   1.416       .  A
C1699      H1706   1.083       .  S
C1700      C1701   1.419       .  A
C1701      C1702   1.416       .  A
C1701      N1708   1.437       .  S
C1702      C1703   1.408       .  A
C1702      H1707   1.076       .  S
C1703      C1704   1.427       .  A
C1704      N1705   1.437       .  S
N1705      O1709   1.263       .  A
N1705      O2086   1.263       .  A
N1708      O1712   1.262       .  A
N1708      O1711   1.263       .  A
O1710      N2081   1.263       .  A
C1713      C1714   1.404       .  A
C1713      C1718   1.416       .  A
C1713      H1720   1.083       .  S
C1714      C1715   1.423       .  A
C1715      C1716   1.420       .  A
C1715      N1722   1.439       .  S
C1716      C1717   1.408       .  A
C1716      H1721   1.078       .  S
C1717      C1718   1.426       .  A
C1718      N1719   1.436       .  S
N1719      O1723   1.263       .  A
N1719      O1724   1.262       .  A
N1722      O1726   1.262       .  A
N1722      O1725   1.263       .  A
C1727      C1728   1.399       .  A
C1727      C1732   1.393       .  A
C1727      H1734   1.083       .  S
C1728      C1729   1.406       .  A
C1729      C1730   1.387       .  A
C1729      N1736   1.434       .  S
C1730      C1731   1.405       .  A
C1730      H1735   1.081       .  S
C1731      C1732   1.417       .  A
C1732      N1733   1.438       .  S
N1733      O1737   1.263       .  A
N1733      O1738   1.263       .  A
N1736      O1740   1.262       .  A
N1736      O1739   1.263       .  A
C1741      C1742   1.403       .  A
C1741      C1746   1.409       .  A
C1741      H1748   1.084       .  S
C1742      C1743   1.419       .  A
C1743      C1744   1.421       .  A
C1743      N1750   1.437       .  S
C1744      C1745   1.409       .  A
C1744      H1749   1.078       .  S
C1745      C1746   1.423       .  A
C1746      N1747   1.433       .  S
N1747      O1751   1.261       .  A
N1747      O1752   1.262       .  A
N1750      O1754   1.262       .  A
N1750      O1753   1.263       .  A
C1755      C1756   1.400       .  A
C1755      C1760   1.405       .  A
C1755      H1762   1.084       .  S
C1756      C1757   1.394       .  A
C1757      C1758   1.371       .  A
C1757      N1764   1.425       .  S
C1758      C1759   1.404       .  A
C1758      H1763   1.079       .  S
C1759      C1760   1.422       .  A
C1760      N1761   1.429       .  S
N1761      O1765   1.262       .  A
N1761      O1766   1.262       .  A
N1764      O1768   1.262       .  A
N1764      O1767   1.260       .  A
C1769      C1770   1.408       .  A
C1769      C1774   1.422       .  A
C1769      H1776   1.083       .  S
C1770      C1771   1.411       .  A
C1771      C1772   1.407       .  A
C1771      N1778   1.433       .  S
C1772      C1773   1.416       .  A
C1772      H1777   1.081       .  S
C1773      C1774   1.421       .  A
C1774      N1775   1.429       .  S
N1775      O1779   1.262       .  A
N1775      O1780   1.259       .  A
N1778      O1782   1.262       .  A
N1778      O1781   1.262       .  A
C1783      C1784   1.408       .  A
C1783      C1788   1.386       .  A
C1783      H1790   1.071       .  S
C1784      C1785   1.423       .  A
C1785      C1786   1.392       .  A
C1785      N1792   1.435       .  S
C1786      C1787   1.395       .  A
C1786      H1791   1.084       .  S
C1787      C1788   1.393       .  A
C1788      N1789   1.430       .  S
N1789      O1793   1.262       .  A
N1789      O1794   1.262       .  A
N1792      O1796   1.262       .  A
N1792      O1795   1.262       .  A
C1797      C1798   1.409       .  A
C1797      C1802   1.417       .  A
C1797      H1804   1.080       .  S
C1798      C1799   1.426       .  A
C1799      C1800   1.407       .  A
C1799      N1806   1.436       .  S
C1800      C1801   1.402       .  A
C1800      H1805   1.083       .  S
C1801      C1802   1.417       .  A
C1802      N1803   1.428       .  S
N1803      O1807   1.261       .  A
N1803      O1808   1.262       .  A
N1806      O1810   1.260       .  A
N1806      O1809   1.263       .  A
C1811      C1812   1.392       .  A
C1811      C1816   1.378       .  A
C1811      H1818   1.086       .  S
C1812      C1813   1.408       .  A
C1813      C1814   1.399       .  A
C1813      N1820   1.438       .  S
C1814      C1815   1.410       .  A
C1814      H1819   1.077       .  S
C1815      C1816   1.422       .  A
C1816      N1817   1.435       .  S
N1817      O1821   1.262       .  A
N1817      O1822   1.262       .  A
N1820      O1824   1.263       .  A
N1820      O1823   1.263       .  A
C1825      C1826   1.417       .  A
C1825      C1830   1.412       .  A
C1825      H1832   1.082       .  S
C1826      C1827   1.428       .  A
C1827      C1828   1.420       .  A
C1827      N1834   1.432       .  S
C1828      C1829   1.408       .  A
C1828      H1833   1.084       .  S
C1829      C1830   1.415       .  A
C1830      N1831   1.433       .  S
N1831      O1835   1.262       .  A
N1831      O1836   1.262       .  A
N1834      O1838   1.263       .  A
N1834      O1837   1.262       .  A
C1839      C1840   1.396       .  A
C1839      C1844   1.400       .  A
C1839      H1846   1.084       .  S
C1840      C1841   1.400       .  A
C1841      C1842   1.390       .  A
C1841      N1848   1.436       .  S
C1842      C1843   1.412       .  A
C1842      H1847   1.080       .  S
C1843      C1844   1.427       .  A
C1844      N1845   1.448       .  S
N1845      O1849   1.264       .  A
N1845      O1850   1.260       .  A
N1848      O1852   1.262       .  A
N1848      O1851   1.263       .  A
C1853      C1854   1.394       .  A
C1853      C1858   1.398       .  A
C1853      H1860   1.084       .  S
C1854      C1855   1.399       .  A
C1855      C1856   1.381       .  A
C1855      N1862   1.428       .  S
C1856      C1857   1.405       .  A
C1856      H1861   1.083       .  S
C1857      C1858   1.424       .  A
C1858      N1859   1.438       .  S
N1859      O1863   1.263       .  A
N1859      O1864   1.262       .  A
N1862      O1866   1.261   1_545  A
N1862      O1865   1.261       .  A
C1867      C1868   1.408       .  A
C1867      C1872   1.418       .  A
C1867      H1874   1.084       .  S
C1868      C1869   1.421       .  A
C1869      C1870   1.415       .  A
C1869      N1876   1.436       .  S
C1870      C1871   1.413       .  A
C1870      H1875   1.084       .  S
C1871      C1872   1.425       .  A
C1872      N1873   1.432       .  S
N1873      O1877   1.261       .  A
N1873      O1878   1.263       .  A
N1876      O1880   1.263       .  A
N1876      O1879   1.262       .  A
O1881     Cu1889   1.982   1_545  S
O1881      C1891   1.274       .  A
O1882     Cu2641   1.974       .  S
O1882      C1892   1.274       .  A
O1883     Cu2641   2.039       .  S
O1883      C1893   1.282       .  A
O1884     Cu1889   2.049   1_545  S
O1884      C1894   1.283       .  A
O1885     Cu2642   2.053   1_545  S
O1885      C1894   1.283       .  A
O1886     Cu1890   2.055       .  S
O1886      C1893   1.283       .  A
O1887     Cu1890   1.963       .  S
O1887      C1892   1.273       .  A
O1888     Cu2642   1.958   1_545  S
O1888      C1891   1.272       .  A
Cu1889     O2634   1.983       .  S
Cu1889     O2635   2.050       .  S
Cu1889    Cu2642   2.372       .  S
Cu1890     O2637   2.056       .  S
Cu1890     O2640   1.961       .  S
Cu1890    Cu2641   2.373       .  S
C1891      C2230   1.444       .  S
C1892      C2216   1.447       .  S
C1893      C2205   1.506       .  S
C1894      C2244   1.511       .  S
C1895      C1896   1.519       .  S
C1895      C1901   1.549       .  S
C1895      C1899   1.509       .  S
C1895      C2233   1.508       .  S
C1896      H1903   1.082       .  S
C1897      C1898   1.559       .  S
C1898      C1902   1.565       .  S
C1898      C1900   1.569       .  S
C1898      H1904   1.102       .  S
C1899      H1905   1.076       .  S
C1902      C2247   1.538       .  S
C1907      C1908   1.528       .  S
C1907      C1913   1.547       .  S
C1907      C1911   1.524       .  S
C1907      C2219   1.520       .  S
C1908      H1915   1.074       .  S
C1909      C1910   1.557   1_554  S
C1910      C1914   1.559       .  S
C1910      C1912   1.565   1_556  S
C1910      H1916   1.101       .  S
C1911      H1917   1.080       .  S
C1914      C2202   1.541       .  S
O1919     Cu2679   2.044       .  S
O1919      C1929   1.281       .  A
O1920     Cu1927   2.059       .  S
O1920      C1930   1.283       .  A
O1921     Cu1927   1.964       .  S
O1921      C1931   1.272       .  A
O1922     Cu2679   1.955       .  S
O1922      C1932   1.273       .  A
O1923     Cu2680   1.975       .  S
O1923      C1932   1.272       .  A
O1924     Cu1928   1.971       .  S
O1924      C1931   1.273       .  A
O1925     Cu1928   2.042       .  S
O1925      C1930   1.282       .  A
O1926     Cu2680   2.039       .  S
O1926      C1929   1.283       .  A
Cu1927     O2671   2.049       .  S
Cu1927     O2674   1.956       .  S
Cu1927    Cu1928   2.374       .  S
Cu1928     O2675   1.970       .  S
Cu1928     O2678   2.038       .  S
C1929      C2177   1.508       .  S
C1930      C2146   1.507       .  S
C1931      C2163   1.440       .  S
C1932      C2188   1.442       .  S
C1933      C1934   1.533       .  S
C1933      C1939   1.532       .  S
C1933      C1937   1.515       .  S
C1933      C2191   1.509       .  S
C1934      H1941   1.081       .  S
C1935      C1936   1.569   1_554  S
C1936      C1940   1.563       .  S
C1936      C1938   1.567   1_556  S
C1936      H1942   1.110       .  S
C1937      H1943   1.076       .  S
C1940      C2174   1.523       .  S
C1945      C1946   1.532       .  S
C1945      C1951   1.535   1_556  S
C1945      C1949   1.504       .  S
C1945      C2160   1.514       .  S
C1946      H1953   1.077       .  S
C1947      C1948   1.565       .  S
C1948      C1952   1.572       .  S
C1948      C1950   1.558       .  S
C1948      H1954   1.102       .  S
C1949      H1955   1.072       .  S
C1952      C2149   1.541       .  S
O1957     Cu1965   1.973       .  S
O1957      C1967   1.274       .  A
O1958      C1968   1.272       .  A
O1959      C1969   1.284       .  A
O1960     Cu1965   2.062       .  S
O1960      C1970   1.285       .  A
O1961     Cu1966   2.024       .  S
O1961      C1970   1.278       .  A
O1962      C1969   1.280       .  A
O1963      C1968   1.276       .  A
O1964     Cu1966   1.965       .  S
O1964      C1967   1.273       .  A
Cu1965    Cu1966   2.375       .  S
C1967      C2104   1.447       .  S
C1968      C2132   1.451       .  S
C1969      C2118   1.506       .  S
C1970      C2090   1.505       .  S
C1971      C1972   1.522       .  S
C1971      C1977   1.548       .  S
C1971      C1975   1.534       .  S
C1971      C2135   1.514       .  S
C1972      H1979   1.077       .  S
C1973      C1974   1.563   1_554  S
C1974      C1978   1.557       .  S
C1974      C1976   1.552   1_556  S
C1974      H1980   1.111       .  S
C1975      H1981   1.076       .  S
C1978      C2121   1.515       .  S
C1983      C1984   1.510       .  S
C1983      C1989   1.555       .  S
C1983      C1987   1.519       .  S
C1983      C2107   1.512       .  S
C1984      H1991   1.086       .  S
C1985      C1986   1.566       .  S
C1986      C1990   1.556       .  S
C1986      C1988   1.574       .  S
C1986      H1992   1.109       .  S
C1987      H1993   1.080       .  S
C1990      C2093   1.528       .  S
O1995      C2005   1.281       .  A
O1996     Cu2003   2.043   1_655  S
O1996      C2006   1.281       .  A
O1997     Cu2003   1.984   1_655  S
O1997      C2007   1.276       .  A
O1998      C2008   1.275       .  A
O1999      C2008   1.272       .  A
O2000     Cu2004   1.958   1_655  S
O2000      C2007   1.270       .  A
O2001     Cu2004   2.063   1_655  S
O2001      C2006   1.285       .  A
O2002      C2005   1.285       .  A
Cu2003    Cu2004   2.373       .  S
C2005      C2076   1.508       .  S
C2006      C2034   1.510       .  S
C2007      C2048   1.449       .  S
C2008      C2062   1.448       .  S
C2009      C2010   1.508       .  S
C2009      C2015   1.555       .  S
C2009      C2013   1.521       .  S
C2009      C2065   1.512       .  S
C2010      H2017   1.086       .  S
C2011      C2012   1.566       .  S
C2012      C2016   1.560       .  S
C2012      C2014   1.571       .  S
C2012      H2018   1.109       .  S
C2013      H2019   1.082       .  S
C2016      C2079   1.534       .  S
C2021      C2022   1.517       .  S
C2021      C2027   1.547       .  S
C2021      C2025   1.532       .  S
C2021      C2051   1.516       .  S
C2022      H2029   1.074       .  S
C2023      C2024   1.578   1_554  S
C2024      C2028   1.567       .  S
C2024      C2026   1.562   1_556  S
C2024      H2030   1.110       .  S
C2025      H2031   1.074       .  S
C2028      C2037   1.522       .  S
C2033      C2034   1.408       .  A
C2033      C2038   1.416       .  A
C2033      H2040   1.084       .  S
C2034      C2035   1.419       .  A
C2035      C2036   1.415       .  A
C2035      N2042   1.435       .  S
C2036      C2037   1.412       .  A
C2036      H2041   1.084       .  S
C2037      C2038   1.412       .  A
C2038      N2039   1.422       .  S
N2039      O2043   1.262       .  A
N2039      O2044   1.262       .  A
N2042      O2046   1.262       .  A
N2042      O2045   1.263       .  A
C2047      C2048   1.397       .  A
C2047      C2052   1.398       .  A
C2047      H2054   1.084       .  S
C2048      C2049   1.398       .  A
C2049      C2050   1.377       .  A
C2049      N2056   1.424       .  S
C2050      C2051   1.405       .  A
C2050      H2055   1.085       .  S
C2051      C2052   1.423       .  A
C2052      N2053   1.428       .  S
N2053      O2057   1.262       .  A
N2053      O2058   1.263       .  A
N2056      O2060   1.262       .  A
N2056      O2059   1.258       .  A
C2061      C2062   1.397       .  A
C2061      C2066   1.394       .  A
C2061      H2068   1.084       .  S
C2062      C2063   1.406       .  A
C2063      C2064   1.388       .  A
C2063      N2070   1.434       .  S
C2064      C2065   1.406       .  A
C2064      H2069   1.083       .  S
C2065      C2066   1.418       .  A
C2066      N2067   1.439       .  S
N2067      O2071   1.263       .  A
N2067      O2072   1.262       .  A
N2070      O2074   1.262       .  A
N2070      O2073   1.263       .  A
C2075      C2076   1.402       .  A
C2075      C2080   1.416       .  A
C2075      H2082   1.084       .  S
C2076      C2077   1.414       .  A
C2077      C2078   1.415       .  A
C2077      N2084   1.430       .  S
C2078      C2079   1.412       .  A
C2078      H2083   1.077       .  S
C2079      C2080   1.431       .  A
C2080      N2081   1.436       .  S
N2081      O2085   1.263       .  A
N2084      O2088   1.262       .  A
N2084      O2087   1.262       .  A
C2089      C2090   1.402       .  A
C2089      C2094   1.413       .  A
C2089      H2096   1.083       .  S
C2090      C2091   1.421       .  A
C2091      C2092   1.417       .  A
C2091      N2098   1.438       .  S
C2092      C2093   1.407       .  A
C2092      H2097   1.077       .  S
C2093      C2094   1.425       .  A
C2094      N2095   1.434       .  S
N2095      O2099   1.263       .  A
N2095      O2100   1.261       .  A
N2098      O2102   1.262       .  A
N2098      O2101   1.263       .  A
C2103      C2104   1.396       .  A
C2103      C2108   1.394       .  A
C2103      H2110   1.083       .  S
C2104      C2105   1.403       .  A
C2105      C2106   1.386       .  A
C2105      N2112   1.432       .  S
C2106      C2107   1.407       .  A
C2106      H2111   1.081       .  S
C2107      C2108   1.421       .  A
C2108      N2109   1.438       .  S
N2109      O2113   1.263       .  A
N2109      O2114   1.262       .  A
N2112      O2116   1.262       .  A
N2112      O2115   1.262       .  A
C2117      C2118   1.403       .  A
C2117      C2122   1.408       .  A
C2117      H2124   1.084       .  S
C2118      C2119   1.420       .  A
C2119      C2120   1.421       .  A
C2119      N2126   1.437       .  S
C2120      C2121   1.409       .  A
C2120      H2125   1.081       .  S
C2121      C2122   1.423       .  A
C2122      N2123   1.435       .  S
N2123      O2127   1.259       .  A
N2123      O2128   1.262       .  A
N2126      O2130   1.263       .  A
N2126      O2129   1.263       .  A
C2131      C2132   1.400       .  A
C2131      C2136   1.402       .  A
C2131      H2138   1.084       .  S
C2132      C2133   1.395       .  A
C2133      C2134   1.371       .  A
C2133      N2140   1.423       .  S
C2134      C2135   1.405       .  A
C2134      H2139   1.083       .  S
C2135      C2136   1.420       .  A
C2136      N2137   1.425       .  S
N2137      O2141   1.262       .  A
N2137      O2142   1.262       .  A
N2140      O2144   1.262       .  A
N2140      O2143   1.260       .  A
C2145      C2146   1.408       .  A
C2145      C2150   1.424       .  A
C2145      H2152   1.083       .  S
C2146      C2147   1.410       .  A
C2147      C2148   1.408       .  A
C2147      N2154   1.432       .  S
C2148      C2149   1.416       .  A
C2148      H2153   1.082       .  S
C2149      C2150   1.427       .  A
C2150      N2151   1.433       .  S
N2151      O2155   1.262       .  A
N2151      O2156   1.263       .  A
N2154      O2158   1.262       .  A
N2154      O2157   1.262       .  A
C2159      C2160   1.407       .  A
C2159      C2164   1.388       .  A
C2159      H2166   1.071       .  S
C2160      C2161   1.422       .  A
C2161      C2162   1.389       .  A
C2161      N2168   1.433       .  S
C2162      C2163   1.393       .  A
C2162      H2167   1.083       .  S
C2163      C2164   1.399       .  A
C2164      N2165   1.433       .  S
N2165      O2169   1.262       .  A
N2165      O2170   1.262       .  A
N2168      O2172   1.262       .  A
N2168      O2171   1.262       .  A
C2173      C2174   1.407       .  A
C2173      C2178   1.417       .  A
C2173      H2180   1.080       .  S
C2174      C2175   1.425       .  A
C2175      C2176   1.409       .  A
C2175      N2182   1.438       .  S
C2176      C2177   1.404       .  A
C2176      H2181   1.083       .  S
C2177      C2178   1.421       .  A
C2178      N2179   1.430       .  S
N2179      O2183   1.261       .  A
N2179      O2184   1.262       .  A
N2182      O2186   1.261       .  A
N2182      O2185   1.263       .  A
C2187      C2188   1.390       .  A
C2187      C2192   1.377       .  A
C2187      H2194   1.086       .  S
C2188      C2189   1.408       .  A
C2189      C2190   1.400       .  A
C2189      N2196   1.439       .  S
C2190      C2191   1.409       .  A
C2190      H2195   1.077       .  S
C2191      C2192   1.423       .  A
C2192      N2193   1.435       .  S
N2193      O2197   1.262       .  A
N2193      O2198   1.262       .  A
N2196      O2200   1.263       .  A
N2196      O2199   1.263       .  A
C2201      C2202   1.416       .  A
C2201      C2206   1.406       .  A
C2201      H2208   1.082       .  S
C2202      C2203   1.429       .  A
C2203      C2204   1.420       .  A
C2203      N2210   1.431       .  S
C2204      C2205   1.407       .  A
C2204      H2209   1.084       .  S
C2205      C2206   1.411       .  A
C2206      N2207   1.430       .  S
N2207      O2211   1.262       .  A
N2207      O2212   1.262       .  A
N2210      O2214   1.263       .  A
N2210      O2213   1.262       .  A
C2215      C2216   1.394       .  A
C2215      C2220   1.393       .  A
C2215      H2222   1.085       .  S
C2216      C2217   1.405       .  A
C2217      C2218   1.384       .  A
C2217      N2224   1.437       .  S
C2218      C2219   1.411       .  A
C2218      H2223   1.085       .  S
C2219      C2220   1.420       .  A
C2220      N2221   1.423       .  S
N2221      O2225   1.261       .  A
N2221      O2226   1.262       .  A
N2224      O2228   1.261       .  A
N2224      O2227   1.263       .  A
C2229      C2230   1.396       .  A
C2229      C2234   1.397       .  A
C2229      H2236   1.084       .  S
C2230      C2231   1.405       .  A
C2231      C2232   1.383       .  A
C2231      N2238   1.435       .  S
C2232      C2233   1.404       .  A
C2232      H2237   1.084       .  S
C2233      C2234   1.422       .  A
C2234      N2235   1.437       .  S
N2235      O2239   1.263       .  A
N2235      O2240   1.262       .  A
N2238      O2242   1.261   1_545  A
N2238      O2241   1.262       .  A
C2243      C2244   1.408       .  A
C2243      C2248   1.420       .  A
C2243      H2250   1.084       .  S
C2244      C2245   1.417       .  A
C2245      C2246   1.412       .  A
C2245      N2252   1.437       .  S
C2246      C2247   1.415       .  A
C2246      H2251   1.083       .  S
C2247      C2248   1.426       .  A
C2248      N2249   1.431       .  S
N2249      O2253   1.261       .  A
N2249      O2254   1.263       .  A
N2252      O2256   1.262       .  A
N2252      O2255   1.263       .  A
O2257     Cu2265   1.975       .  S
O2257      C2267   1.273       .  A
O2258      C2268   1.273       .  A
O2259      C2269   1.284       .  A
O2260     Cu2265   2.055       .  S
O2260      C2270   1.283       .  A
O2261      C2270   1.283       .  A
O2262     Cu2266   2.047       .  S
O2262      C2269   1.282       .  A
O2263     Cu2266   1.960       .  S
O2263      C2268   1.273       .  A
O2264      C2267   1.272       .  A
C2267      C2606   1.439       .  S
C2268      C2592   1.444       .  S
C2269      C2581   1.515       .  S
C2270      C2620   1.516       .  S
C2271      C2272   1.519       .  S
C2271      C2277   1.549       .  S
C2271      C2275   1.511       .  S
C2271      C2609   1.510       .  S
C2272      H2279   1.084       .  S
C2272      C2649   1.350       .  D
C2273      C2274   1.567   1_556  S
C2273      C2648   1.354       .  D
C2273      C2725   1.471   1_556  S
C2274      C2278   1.569       .  S
C2274      C2276   1.573   1_554  S
C2274      H2280   1.103       .  S
C2275      H2281   1.077       .  S
C2275      C2652   1.350       .  D
C2276      C2651   1.345       .  D
C2276      C2690   1.487   1_556  S
C2277      H2658   1.083       .  S
C2277      C2654   1.374       .  D
C2278      C2653   1.369       .  D
C2278      C2623   1.539       .  S
H2282      C2653   1.086       .  S
C2283      C2284   1.505       .  S
C2283      C2289   1.558       .  S
C2283      C2287   1.530       .  S
C2283      C2595   1.517       .  S
C2284      H2291   1.087       .  S
C2284      C2661   1.345       .  D
C2285      C2286   1.563       .  S
C2285      C2660   1.357       .  D
C2285      C2763   1.477       .  S
C2286      C2290   1.568       .  S
C2286      C2288   1.558       .  S
C2286      H2292   1.101       .  S
C2287      H2293   1.086       .  S
C2287      C2664   1.361       .  D
C2288      C2663   1.349       .  D
C2288      C2702   1.479       .  S
C2289      H2670   1.081       .  S
C2289      C2666   1.373   1_554  D
C2290      C2665   1.371       .  D
C2290      C2578   1.547       .  S
H2294      C2665   1.084       .  S
O2295      C2305   1.281       .  A
O2296     Cu2303   2.053   1_565  S
O2296      C2306   1.282       .  A
O2297     Cu2303   1.959   1_565  S
O2297      C2307   1.272       .  A
O2298      C2308   1.273       .  A
O2299      C2308   1.274       .  A
O2300     Cu2304   1.983   1_565  S
O2300      C2307   1.274       .  A
O2301     Cu2304   2.041   1_565  S
O2301      C2306   1.282       .  A
O2302      C2305   1.282       .  A
Cu2303    Cu2304   2.374       .  S
C2305      C2553   1.505       .  S
C2306      C2522   1.502       .  S
C2307      C2539   1.444       .  S
C2308      C2564   1.447       .  S
C2309      C2310   1.532       .  S
C2309      C2315   1.530       .  S
C2309      C2313   1.517       .  S
C2309      C2567   1.510       .  S
C2310      H2317   1.081       .  S
C2310      C2687   1.363       .  D
C2311      C2312   1.570       .  S
C2311      C2686   1.365       .  D
C2311      C2737   1.482       .  S
C2312      C2316   1.561       .  S
C2312      C2314   1.565       .  S
C2312      H2318   1.110       .  S
C2313      H2319   1.073       .  S
C2313      C2690   1.347       .  D
C2314      C2689   1.345       .  D
C2314      C2652   1.483       .  S
C2315      H2696   1.084       .  S
C2315      C2692   1.359   1_554  D
C2316      C2691   1.361       .  D
C2316      C2550   1.522       .  S
H2320      C2691   1.083       .  S
C2321      C2322   1.530       .  S
C2321      C2327   1.538       .  S
C2321      C2325   1.505       .  S
C2321      C2536   1.515       .  S
C2322      H2329   1.073       .  S
C2322      C2699   1.354       .  D
C2323      C2324   1.574   1_556  S
C2323      C2698   1.355       .  D
C2323      C2775   1.488   1_556  S
C2324      C2328   1.571       .  S
C2324      C2326   1.563   1_554  S
C2324      H2330   1.100       .  S
C2325      H2331   1.077       .  S
C2325      C2702   1.348       .  D
C2326      C2701   1.348       .  D
C2326      C2664   1.491   1_556  S
C2327      H2708   1.082       .  S
C2327      C2704   1.372       .  D
C2328      C2703   1.372   1_554  D
C2328      C2525   1.541       .  S
H2332      C2703   1.080       .  S
O2333     Cu2341   1.971       .  S
O2333      C2343   1.273       .  A
O2334      C2344   1.272       .  A
O2335      C2345   1.285       .  A
O2336     Cu2341   2.068       .  S
O2336      C2346   1.286       .  A
O2337     Cu2342   2.035       .  S
O2337      C2346   1.280       .  A
O2338      C2345   1.282       .  A
O2339      C2344   1.274       .  A
O2340     Cu2342   1.961       .  S
O2340      C2343   1.273       .  A
Cu2341    Cu2342   2.373       .  S
C2343      C2480   1.446       .  S
C2344      C2508   1.450       .  S
C2345      C2494   1.515       .  S
C2346      C2466   1.513       .  S
C2347      C2348   1.518       .  S
C2347      C2353   1.549       .  S
C2347      C2351   1.534       .  S
C2347      C2511   1.517       .  S
C2348      H2355   1.077       .  S
C2348      C2725   1.355       .  D
C2349      C2350   1.564       .  S
C2349      C2724   1.358       .  D
C2349      C2649   1.468       .  S
C2350      C2354   1.558       .  S
C2350      C2352   1.557       .  S
C2350      H2356   1.111       .  S
C2351      H2357   1.074       .  S
C2351      C2728   1.354       .  D
C2352      C2727   1.351       .  D
C2352      C2766   1.487       .  S
C2353      H2734   1.087       .  S
C2353      C2730   1.359   1_554  D
C2354      C2729   1.357       .  D
C2354      C2497   1.523       .  S
H2358      C2729   1.087       .  S
C2359      C2360   1.509       .  S
C2359      C2365   1.552       .  S
C2359      C2363   1.518       .  S
C2359      C2483   1.509       .  S
C2360      H2367   1.086       .  S
C2360      C2737   1.354       .  D
C2361      C2362   1.569   1_556  S
C2361      C2736   1.354       .  D
C2361      C2687   1.482   1_556  S
C2362      C2366   1.559       .  S
C2362      C2364   1.574   1_554  S
C2362      H2368   1.110       .  S
C2363      H2369   1.081       .  S
C2363      C2740   1.353       .  D
C2364      C2739   1.352       .  D
C2364      C2778   1.488   1_556  S
C2365      H2746   1.084       .  S
C2365      C2742   1.366       .  D
C2366      C2741   1.366   1_554  D
C2366      C2469   1.530       .  S
H2370      C2741   1.083       .  S
O2371      C2381   1.281       .  A
O2372     Cu2379   2.040   1_655  S
O2372      C2382   1.280       .  A
O2373     Cu2379   1.982   1_655  S
O2373      C2383   1.276       .  A
O2374      C2384   1.274       .  A
O2375      C2384   1.272       .  A
O2376     Cu2380   1.967   1_655  S
O2376      C2383   1.271       .  A
O2377     Cu2380   2.061   1_655  S
O2377      C2382   1.285       .  A
O2378      C2381   1.285       .  A
Cu2379    Cu2380   2.371       .  S
C2381      C2452   1.513       .  S
C2382      C2410   1.507       .  S
C2383      C2424   1.455       .  S
C2384      C2438   1.447       .  S
C2385      C2386   1.505       .  S
C2385      C2391   1.555       .  S
C2385      C2389   1.516       .  S
C2385      C2441   1.505       .  S
C2386      H2393   1.087       .  S
C2386      C2763   1.350       .  D
C2387      C2388   1.571   1_556  S
C2387      C2762   1.352       .  D
C2387      C2661   1.476   1_556  S
C2388      C2392   1.561       .  S
C2388      C2390   1.567   1_554  S
C2388      H2394   1.110       .  S
C2389      H2395   1.081       .  S
C2389      C2766   1.353       .  D
C2390      C2765   1.353       .  D
C2390      C2728   1.487   1_556  S
C2391      H2772   1.083       .  S
C2391      C2768   1.368       .  D
C2392      C2767   1.367   1_554  D
C2392      C2455   1.532       .  S
H2396      C2767   1.083       .  S
C2397      C2398   1.520       .  S
C2397      C2403   1.540   1_554  S
C2397      C2401   1.535       .  S
C2397      C2427   1.513       .  S
C2398      H2405   1.076       .  S
C2398      C2775   1.358       .  D
C2399      C2400   1.574       .  S
C2399      C2774   1.357       .  D
C2399      C2699   1.485       .  S
C2400      C2404   1.563       .  S
C2400      C2402   1.563       .  S
C2400      H2406   1.110       .  S
C2401      H2407   1.078       .  S
C2401      C2778   1.351       .  D
C2402      C2777   1.353       .  D
C2402      C2740   1.490       .  S
C2403      H2784   1.087       .  S
C2403      C2780   1.357       .  D
C2404      C2779   1.359       .  D
C2404      C2413   1.525       .  S
H2408      C2779   1.087       .  S
C2409      C2410   1.403       .  A
C2409      C2414   1.412       .  A
C2409      H2416   1.084       .  S
C2410      C2411   1.420       .  A
C2411      C2412   1.418       .  A
C2411      N2418   1.436       .  S
C2412      C2413   1.413       .  A
C2412      H2417   1.084       .  S
C2413      C2414   1.412       .  A
C2414      N2415   1.418       .  S
N2415      O2419   1.262       .  A
N2415      O2420   1.262       .  A
N2418      O2422   1.263       .  A
N2418      O2421   1.263       .  A
C2423      C2424   1.401       .  A
C2423      C2428   1.403       .  A
C2423      H2430   1.084       .  S
C2424      C2425   1.401       .  A
C2425      C2426   1.375       .  A
C2425      N2432   1.424       .  S
C2426      C2427   1.401       .  A
C2426      H2431   1.085       .  S
C2427      C2428   1.420       .  A
C2428      N2429   1.433       .  S
N2429      O2433   1.263       .  A
N2429      O2434   1.263       .  A
N2432      O2436   1.263       .  A
N2432      O2435   1.260       .  A
C2437      C2438   1.399       .  A
C2437      C2442   1.390       .  A
C2437      H2444   1.083       .  S
C2438      C2439   1.408       .  A
C2439      C2440   1.386       .  A
C2439      N2446   1.436       .  S
C2440      C2441   1.404       .  A
C2440      H2445   1.084       .  S
C2441      C2442   1.415       .  A
C2442      N2443   1.438       .  S
N2443      O2447   1.263       .  A
N2443      O2448   1.263       .  A
N2446      O2450   1.263       .  A
N2446      O2449   1.263       .  A
C2451      C2452   1.405       .  A
C2451      C2456   1.417       .  A
C2451      H2458   1.083       .  S
C2452      C2453   1.421       .  A
C2453      C2454   1.419       .  A
C2453      N2460   1.438       .  S
C2454      C2455   1.408       .  A
C2454      H2459   1.077       .  S
C2455      C2456   1.427       .  A
C2456      N2457   1.438       .  S
N2457      O2461   1.263       .  A
N2457      O2838   1.263       .  A
N2460      O2464   1.262       .  A
N2460      O2463   1.263       .  A
O2462      N2833   1.263       .  A
C2465      C2466   1.404       .  A
C2465      C2470   1.415       .  A
C2465      H2472   1.083       .  S
C2466      C2467   1.422       .  A
C2467      C2468   1.419       .  A
C2467      N2474   1.436       .  S
C2468      C2469   1.407       .  A
C2468      H2473   1.078       .  S
C2469      C2470   1.426       .  A
C2470      N2471   1.436       .  S
N2471      O2475   1.263       .  A
N2471      O2476   1.262       .  A
N2474      O2478   1.262       .  A
N2474      O2477   1.262       .  A
C2479      C2480   1.397       .  A
C2479      C2484   1.392       .  A
C2479      H2486   1.083       .  S
C2480      C2481   1.405       .  A
C2481      C2482   1.387       .  A
C2481      N2488   1.435       .  S
C2482      C2483   1.406       .  A
C2482      H2487   1.081       .  S
C2483      C2484   1.418       .  A
C2484      N2485   1.439       .  S
N2485      O2489   1.263       .  A
N2485      O2490   1.262       .  A
N2488      O2492   1.262       .  A
N2488      O2491   1.262       .  A
C2493      C2494   1.404       .  A
C2493      C2498   1.411       .  A
C2493      H2500   1.084       .  S
C2494      C2495   1.422       .  A
C2495      C2496   1.425       .  A
C2495      N2502   1.436       .  S
C2496      C2497   1.410       .  A
C2496      H2501   1.082       .  S
C2497      C2498   1.424       .  A
C2498      N2499   1.434       .  S
N2499      O2503   1.260       .  A
N2499      O2504   1.262       .  A
N2502      O2506   1.263       .  A
N2502      O2505   1.262       .  A
C2507      C2508   1.397       .  A
C2507      C2512   1.403       .  A
C2507      H2514   1.084       .  S
C2508      C2509   1.396       .  A
C2509      C2510   1.372       .  A
C2509      N2516   1.422       .  S
C2510      C2511   1.402       .  A
C2510      H2515   1.082       .  S
C2511      C2512   1.425       .  A
C2512      N2513   1.427       .  S
N2513      O2517   1.262       .  A
N2513      O2518   1.262       .  A
N2516      O2520   1.262       .  A
N2516      O2519   1.259       .  A
C2521      C2522   1.406       .  A
C2521      C2526   1.422       .  A
C2521      H2528   1.084       .  S
C2522      C2523   1.407       .  A
C2523      C2524   1.406       .  A
C2523      N2530   1.431       .  S
C2524      C2525   1.419       .  A
C2524      H2529   1.079       .  S
C2525      C2526   1.424       .  A
C2526      N2527   1.428       .  S
N2527      O2531   1.262       .  A
N2527      O2532   1.259       .  A
N2530      O2534   1.262       .  A
N2530      O2533   1.262       .  A
C2535      C2536   1.408       .  A
C2535      C2540   1.391       .  A
C2535      H2542   1.072       .  S
C2536      C2537   1.421       .  A
C2537      C2538   1.389       .  A
C2537      N2544   1.436       .  S
C2538      C2539   1.393       .  A
C2538      H2543   1.081       .  S
C2539      C2540   1.398       .  A
C2540      N2541   1.433       .  S
N2541      O2545   1.262       .  A
N2541      O2546   1.262       .  A
N2544      O2548   1.262       .  A
N2544      O2547   1.262       .  A
C2549      C2550   1.408       .  A
C2549      C2554   1.417       .  A
C2549      H2556   1.080       .  S
C2550      C2551   1.424       .  A
C2551      C2552   1.406       .  A
C2551      N2558   1.437       .  S
C2552      C2553   1.402       .  A
C2552      H2557   1.083       .  S
C2553      C2554   1.419       .  A
C2554      N2555   1.430       .  S
N2555      O2559   1.261       .  A
N2555      O2560   1.262       .  A
N2558      O2562   1.261       .  A
N2558      O2561   1.263       .  A
C2563      C2564   1.392       .  A
C2563      C2568   1.378       .  A
C2563      H2570   1.085       .  S
C2564      C2565   1.406       .  A
C2565      C2566   1.397       .  A
C2565      N2572   1.434       .  S
C2566      C2567   1.410       .  A
C2566      H2571   1.077       .  S
C2567      C2568   1.422       .  A
C2568      N2569   1.436       .  S
N2569      O2573   1.262       .  A
N2569      O2574   1.262       .  A
N2572      O2576   1.262       .  A
N2572      O2575   1.262       .  A
C2577      C2578   1.419       .  A
C2577      C2582   1.411       .  A
C2577      H2584   1.081       .  S
C2578      C2579   1.428       .  A
C2579      C2580   1.422       .  A
C2579      N2586   1.432       .  S
C2580      C2581   1.409       .  A
C2580      H2585   1.084       .  S
C2581      C2582   1.413       .  A
C2582      N2583   1.432       .  S
N2583      O2587   1.262       .  A
N2583      O2588   1.262       .  A
N2586      O2590   1.263       .  A
N2586      O2589   1.262       .  A
C2591      C2592   1.392       .  A
C2591      C2596   1.398       .  A
C2591      H2598   1.084       .  S
C2592      C2593   1.396       .  A
C2593      C2594   1.387       .  A
C2593      N2600   1.431       .  S
C2594      C2595   1.412       .  A
C2594      H2599   1.080       .  S
C2595      C2596   1.430       .  A
C2596      N2597   1.450       .  S
N2597      O2601   1.264       .  A
N2597      O2602   1.260       .  A
N2600      O2604   1.262       .  A
N2600      O2603   1.261       .  A
C2605      C2606   1.392       .  A
C2605      C2610   1.394       .  A
C2605      H2612   1.084       .  S
C2606      C2607   1.401       .  A
C2607      C2608   1.384       .  A
C2607      N2614   1.433       .  S
C2608      C2609   1.407       .  A
C2608      H2613   1.082       .  S
C2609      C2610   1.426       .  A
C2610      N2611   1.436       .  S
N2611      O2615   1.262       .  A
N2611      O2616   1.263       .  A
N2614      O2618   1.262       .  A
N2614      O2617   1.262       .  A
C2619      C2620   1.409       .  A
C2619      C2624   1.421       .  A
C2619      H2626   1.084       .  S
C2620      C2621   1.417       .  A
C2621      C2622   1.414       .  A
C2621      N2628   1.435       .  S
C2622      C2623   1.415       .  A
C2622      H2627   1.083       .  S
C2623      C2624   1.426       .  A
C2624      N2625   1.433       .  S
N2625      O2629   1.261       .  A
N2625      O2630   1.263       .  A
N2628      O2632   1.262       .  A
N2628      O2631   1.262       .  A
O2633     Cu2641   1.971       .  S
O2633      C2643   1.273       .  A
O2634      C2644   1.274       .  A
O2635      C2645   1.283       .  A
O2636     Cu2641   2.039       .  S
O2636      C2646   1.281       .  A
O2637      C2646   1.284       .  A
O2638     Cu2642   2.054       .  S
O2638      C2645   1.283       .  A
O2639     Cu2642   1.953       .  S
O2639      C2644   1.271       .  A
O2640      C2643   1.272       .  A
C2643      C2982   1.442       .  S
C2644      C2968   1.444       .  S
C2645      C2957   1.513       .  S
C2646      C2996   1.509       .  S
C2647      C2648   1.520       .  S
C2647      C2653   1.546   1_556  S
C2647      C2651   1.509       .  S
C2647      C2985   1.506       .  S
C2648      H2655   1.082       .  S
C2649      C2650   1.560       .  S
C2650      C2654   1.566       .  S
C2650      C2652   1.569       .  S
C2650      H2656   1.101       .  S
C2651      H2657   1.075       .  S
C2654      C2999   1.540       .  S
C2659      C2660   1.526       .  S
C2659      C2665   1.545       .  S
C2659      C2663   1.526       .  S
C2659      C2971   1.520       .  S
C2660      H2667   1.074       .  S
C2661      C2662   1.567   1_554  S
C2662      C2666   1.564       .  S
C2662      C2664   1.571   1_556  S
C2662      H2668   1.101       .  S
C2663      H2669   1.082       .  S
C2666      C2954   1.547       .  S
O2671      C2681   1.282       .  A
O2672     Cu2679   2.049   1_565  S
O2672      C2682   1.282       .  A
O2673     Cu2679   1.960   1_565  S
O2673      C2683   1.272       .  A
O2674      C2684   1.274       .  A
O2675      C2684   1.272       .  A
O2676     Cu2680   1.980   1_565  S
O2676      C2683   1.273       .  A
O2677     Cu2680   2.045   1_565  S
O2677      C2682   1.282       .  A
O2678      C2681   1.283       .  A
Cu2679    Cu2680   2.374       .  S
C2681      C2929   1.508       .  S
C2682      C2898   1.503       .  S
C2683      C2915   1.443       .  S
C2684      C2940   1.442       .  S
C2685      C2686   1.533       .  S
C2685      C2691   1.530       .  S
C2685      C2689   1.516       .  S
C2685      C2943   1.509       .  S
C2686      H2693   1.081       .  S
C2687      C2688   1.571   1_554  S
C2688      C2692   1.564       .  S
C2688      C2690   1.570   1_556  S
C2688      H2694   1.110       .  S
C2689      H2695   1.077       .  S
C2692      C2926   1.527       .  S
C2697      C2698   1.532       .  S
C2697      C2703   1.538       .  S
C2697      C2701   1.506       .  S
C2697      C2912   1.517       .  S
C2698      H2705   1.079       .  S
C2699      C2700   1.566       .  S
C2700      C2704   1.570       .  S
C2700      C2702   1.563       .  S
C2700      H2706   1.101       .  S
C2701      H2707   1.074       .  S
C2704      C2901   1.541       .  S
O2709     Cu2717   1.969       .  S
O2709      C2719   1.272       .  A
O2710      C2720   1.271       .  A
O2711      C2721   1.285       .  A
O2712     Cu2717   2.063       .  S
O2712      C2722   1.285       .  A
O2713     Cu2718   2.028       .  S
O2713      C2722   1.279       .  A
O2714      C2721   1.280       .  A
O2715      C2720   1.277       .  A
O2716     Cu2718   1.966       .  S
O2716      C2719   1.274       .  A
Cu2717    Cu2718   2.375       .  S
C2719      C2856   1.444       .  S
C2720      C2884   1.453       .  S
C2721      C2870   1.508       .  S
C2722      C2842   1.508       .  S
C2723      C2724   1.520       .  S
C2723      C2729   1.551       .  S
C2723      C2727   1.533       .  S
C2723      C2887   1.515       .  S
C2724      H2731   1.077       .  S
C2725      C2726   1.564   1_554  S
C2726      C2730   1.559       .  S
C2726      C2728   1.555   1_556  S
C2726      H2732   1.111       .  S
C2727      H2733   1.074       .  S
C2730      C2873   1.517       .  S
C2735      C2736   1.509       .  S
C2735      C2741   1.554       .  S
C2735      C2739   1.520       .  S
C2735      C2859   1.511       .  S
C2736      H2743   1.086       .  S
C2737      C2738   1.569       .  S
C2738      C2742   1.559       .  S
C2738      C2740   1.575       .  S
C2738      H2744   1.110       .  S
C2739      H2745   1.083       .  S
C2742      C2845   1.528       .  S
O2747      C2757   1.280       .  A
O2748     Cu2755   2.047   1_655  S
O2748      C2758   1.282       .  A
O2749     Cu2755   1.989   1_655  S
O2749      C2759   1.276       .  A
O2750      C2760   1.274       .  A
O2751      C2760   1.271       .  A
O2752     Cu2756   1.971   1_655  S
O2752      C2759   1.272       .  A
O2753     Cu2756   2.075   1_655  S
O2753      C2758   1.287       .  A
O2754      C2757   1.285       .  A
Cu2755    Cu2756   2.369       .  S
C2757      C2828   1.511       .  S
C2758      C2786   1.520       .  S
C2759      C2800   1.459       .  S
C2760      C2814   1.441       .  S
C2761      C2762   1.509       .  S
C2761      C2767   1.554       .  S
C2761      C2765   1.521       .  S
C2761      C2817   1.509       .  S
C2762      H2769   1.087       .  S
C2763      C2764   1.569       .  S
C2764      C2768   1.559       .  S
C2764      C2766   1.574       .  S
C2764      H2770   1.109       .  S
C2765      H2771   1.083       .  S
C2768      C2831   1.535       .  S
C2773      C2774   1.521       .  S
C2773      C2779   1.544       .  S
C2773      C2777   1.534       .  S
C2773      C2803   1.518       .  S
C2774      H2781   1.077       .  S
C2775      C2776   1.575   1_554  S
C2776      C2780   1.569       .  S
C2776      C2778   1.561   1_556  S
C2776      H2782   1.110       .  S
C2777      H2783   1.076       .  S
C2780      C2789   1.524       .  S
C2785      C2786   1.409       .  A
C2785      C2790   1.422       .  A
C2785      H2792   1.083       .  S
C2786      C2787   1.423       .  A
C2787      C2788   1.419       .  A
C2787      N2794   1.438       .  S
C2788      C2789   1.411       .  A
C2788      H2793   1.084       .  S
C2789      C2790   1.419       .  A
C2790      N2791   1.432       .  S
N2791      O2795   1.262       .  A
N2791      O2796   1.262       .  A
N2794      O2798   1.263       .  A
N2794      O2797   1.263       .  A
C2799      C2800   1.402       .  A
C2799      C2804   1.402       .  A
C2799      H2806   1.084       .  S
C2800      C2801   1.401       .  A
C2801      C2802   1.377       .  A
C2801      N2808   1.424       .  S
C2802      C2803   1.404       .  A
C2802      H2807   1.085       .  S
C2803      C2804   1.421       .  A
C2804      N2805   1.430       .  S
N2805      O2809   1.263       .  A
N2805      O2810   1.263       .  A
N2808      O2812   1.263       .  A
N2808      O2811   1.259       .  A
C2813      C2814   1.393       .  A
C2813      C2818   1.391       .  A
C2813      H2820   1.083       .  S
C2814      C2815   1.401       .  A
C2815      C2816   1.385       .  A
C2815      N2822   1.431       .  S
C2816      C2817   1.407       .  A
C2816      H2821   1.081       .  S
C2817      C2818   1.421       .  A
C2818      N2819   1.438       .  S
N2819      O2823   1.263       .  A
N2819      O2824   1.262       .  A
N2822      O2826   1.261       .  A
N2822      O2825   1.262       .  A
C2827      C2828   1.404       .  A
C2827      C2832   1.416       .  A
C2827      H2834   1.083       .  S
C2828      C2829   1.419       .  A
C2829      C2830   1.418       .  A
C2829      N2836   1.437       .  S
C2830      C2831   1.410       .  A
C2830      H2835   1.077       .  S
C2831      C2832   1.429       .  A
C2832      N2833   1.436       .  S
N2833      O2837   1.263       .  A
N2836      O2840   1.262       .  A
N2836      O2839   1.263       .  A
C2841      C2842   1.402       .  A
C2841      C2846   1.413       .  A
C2841      H2848   1.083       .  S
C2842      C2843   1.420       .  A
C2843      C2844   1.417       .  A
C2843      N2850   1.436       .  S
C2844      C2845   1.407       .  A
C2844      H2849   1.078       .  S
C2845      C2846   1.426       .  A
C2846      N2847   1.434       .  S
N2847      O2851   1.263       .  A
N2847      O2852   1.261       .  A
N2850      O2854   1.262       .  A
N2850      O2853   1.262       .  A
C2855      C2856   1.395       .  A
C2855      C2860   1.392       .  A
C2855      H2862   1.083       .  S
C2856      C2857   1.404       .  A
C2857      C2858   1.388       .  A
C2857      N2864   1.434       .  S
C2858      C2859   1.407       .  A
C2858      H2863   1.081       .  S
C2859      C2860   1.419       .  A
C2860      N2861   1.439       .  S
N2861      O2865   1.263       .  A
N2861      O2866   1.262       .  A
N2864      O2868   1.262       .  A
N2864      O2867   1.262       .  A
C2869      C2870   1.404       .  A
C2869      C2874   1.410       .  A
C2869      H2876   1.083       .  S
C2870      C2871   1.418       .  A
C2871      C2872   1.421       .  A
C2871      N2878   1.434       .  S
C2872      C2873   1.409       .  A
C2872      H2877   1.081       .  S
C2873      C2874   1.423       .  A
C2874      N2875   1.433       .  S
N2875      O2879   1.260       .  A
N2875      O2880   1.262       .  A
N2878      O2882   1.262       .  A
N2878      O2881   1.263       .  A
C2883      C2884   1.402       .  A
C2883      C2888   1.403       .  A
C2883      H2890   1.084       .  S
C2884      C2885   1.395       .  A
C2885      C2886   1.369       .  A
C2885      N2892   1.423       .  S
C2886      C2887   1.402       .  A
C2886      H2891   1.081       .  S
C2887      C2888   1.419       .  A
C2888      N2889   1.425       .  S
N2889      O2893   1.262       .  A
N2889      O2894   1.262       .  A
N2892      O2896   1.263       .  A
N2892      O2895   1.258       .  A
C2897      C2898   1.407       .  A
C2897      C2902   1.422       .  A
C2897      H2904   1.084       .  S
C2898      C2899   1.407       .  A
C2899      C2900   1.406       .  A
C2899      N2906   1.431       .  S
C2900      C2901   1.418       .  A
C2900      H2905   1.081       .  S
C2901      C2902   1.427       .  A
C2902      N2903   1.430       .  S
N2903      O2907   1.262       .  A
N2903      O2908   1.263       .  A
N2906      O2910   1.262       .  A
N2906      O2909   1.262       .  A
C2911      C2912   1.409       .  A
C2911      C2916   1.394       .  A
C2911      H2918   1.077       .  S
C2912      C2913   1.422       .  A
C2913      C2914   1.387       .  A
C2913      N2920   1.436       .  S
C2914      C2915   1.392       .  A
C2914      H2919   1.084       .  S
C2915      C2916   1.403       .  A
C2916      N2917   1.437       .  S
N2917      O2921   1.262       .  A
N2917      O2922   1.262       .  A
N2920      O2924   1.262       .  A
N2920      O2923   1.263       .  A
C2925      C2926   1.409       .  A
C2925      C2930   1.420       .  A
C2925      H2932   1.079       .  S
C2926      C2927   1.426       .  A
C2927      C2928   1.408       .  A
C2927      N2934   1.437       .  S
C2928      C2929   1.402       .  A
C2928      H2933   1.083       .  S
C2929      C2930   1.419       .  A
C2930      N2931   1.433       .  S
N2931      O2935   1.262       .  A
N2931      O2936   1.263       .  A
N2934      O2938   1.261       .  A
N2934      O2937   1.263       .  A
C2939      C2940   1.391       .  A
C2939      C2944   1.377       .  A
C2939      H2946   1.086       .  S
C2940      C2941   1.408       .  A
C2941      C2942   1.399       .  A
C2941      N2948   1.439       .  S
C2942      C2943   1.409       .  A
C2942      H2947   1.077       .  S
C2943      C2944   1.422       .  A
C2944      N2945   1.435       .  S
N2945      O2949   1.262       .  A
N2945      O2950   1.262       .  A
N2948      O2952   1.263       .  A
N2948      O2951   1.263       .  A
C2953      C2954   1.417       .  A
C2953      C2958   1.411       .  A
C2953      H2960   1.082       .  S
C2954      C2955   1.429       .  A
C2955      C2956   1.421       .  A
C2955      N2962   1.431       .  S
C2956      C2957   1.408       .  A
C2956      H2961   1.084       .  S
C2957      C2958   1.414       .  A
C2958      N2959   1.432       .  S
N2959      O2963   1.262       .  A
N2959      O2964   1.262       .  A
N2962      O2966   1.263       .  A
N2962      O2965   1.262       .  A
C2967      C2968   1.393       .  A
C2967      C2972   1.396       .  A
C2967      H2974   1.085       .  S
C2968      C2969   1.399       .  A
C2969      C2970   1.380       .  A
C2969      N2976   1.432       .  S
C2970      C2971   1.411       .  A
C2970      H2975   1.085       .  S
C2971      C2972   1.424       .  A
C2972      N2973   1.424       .  S
N2973      O2977   1.262       .  A
N2973      O2978   1.262       .  A
N2976      O2980   1.262       .  A
N2976      O2979   1.262       .  A
C2981      C2982   1.397       .  A
C2981      C2986   1.395       .  A
C2981      H2988   1.084       .  S
C2982      C2983   1.406       .  A
C2983      C2984   1.383       .  A
C2983      N2990   1.439       .  S
C2984      C2985   1.407       .  A
C2984      H2989   1.084       .  S
C2985      C2986   1.418       .  A
C2986      N2987   1.436       .  S
N2987      O2991   1.263       .  A
N2987      O2992   1.262       .  A
N2990      O2994   1.261       .  A
N2990      O2993   1.263       .  A
C2995      C2996   1.407       .  A
C2995      C3000   1.422       .  A
C2995      H3002   1.084       .  S
C2996      C2997   1.411       .  A
C2997      C2998   1.407       .  A
C2997      N3004   1.430       .  S
C2998      C2999   1.416       .  A
C2998      H3003   1.082       .  S
C2999      C3000   1.429       .  A
C3000      N3001   1.431       .  S
N3001      O3005   1.262       .  A
N3001      O3006   1.263       .  A
N3004      O3008   1.262       .  A
N3004      O3007   1.262       .  A
