geometry optimzed in LAMMPS
_audit_creation_date              2020-11-30 
_audit_creation_method            'lammps2cif' 
_symmetry_space_group_name_H-M    'P1' 
_symmetry_Int_Tables_number       1 
_symmetry_cell_setting            triclinic 
loop_ 
_symmetry_equiv_pos_as_xyz 
  x,y,z 
_cell_length_a                    36.04681225 
_cell_length_b                    36.36366654201978 
_cell_length_c                    50.750418348989434 
_cell_angle_alpha                 89.96493416059492 
_cell_angle_beta                  90.00206925812309 
_cell_angle_gamma                 120.97515610803829 
loop_ 
_atom_site_label 
_atom_site_type_symbol 
_atom_site_fract_x 
_atom_site_fract_y 
_atom_site_fract_z 
_atom_site_charge 
O1          O  0.44260087  0.06153067  0.29362666    -0.74000
O2          O  0.46754919  0.03067899  0.32206763    -0.52900
C3          C  0.44857305  0.05130107  0.31695751     0.79700
O4          O  0.39150207  0.91437506  0.19826040    -0.58600
O5          O  0.44948072  0.95560398  0.17181303    -0.51700
C6          C  0.40957294  0.92837539  0.17552999     0.71700
O7          O  0.38245208  0.90599308  0.28866972    -0.73200
O8          O  0.43396714  0.94527510  0.31933289    -0.53800
C9          C  0.39580795  0.91668145  0.31257335     0.77700
O10         O  0.45037430  0.06824501  0.20295072    -0.58300
O11         O  0.47729427  0.03923215  0.17446124    -0.51500
C12         C  0.45779386  0.05938426  0.17958422     0.74300
Zr13       Zr  0.46430649  0.05420256  0.24859906     2.54700
O14         O  0.39549897  0.05157683  0.24681061    -0.78900
O15         O  0.50136127  0.13208512  0.25111616    -0.92300
Zr16       Zr  0.41655196  0.92703889  0.24482518     2.64700
O17         O  0.34011070  0.90443148  0.24404342    -0.97300
O18         O  0.39658333  0.85227736  0.24168469    -0.79300
O19         O  0.44337168  0.98957580  0.26800085    -0.82700
O20         O  0.44050050  0.99230304  0.22206788    -2.17400
O21         O  0.61602840  0.09914017  0.20730057    -0.66100
O22         O  0.56421525  0.05805356  0.17715926    -0.50600
C23         C  0.60181269  0.08829004  0.18354722     0.72700
O24         O  0.55397262  0.93696773  0.29421086    -0.59000
O25         O  0.52158385  0.96042292  0.32250620    -0.51000
C26         C  0.54397670  0.94321071  0.31757099     0.74500
O27         O  0.55278663  0.93459108  0.20324537    -0.70400
O28         O  0.53308470  0.96965759  0.17446071    -0.49100
C29         C  0.54912113  0.94635213  0.17983011     0.75900
O30         O  0.61004496  0.08824608  0.29761632    -0.65700
O31         O  0.55337677  0.04316916  0.32393878    -0.52900
C32         C  0.59242097  0.07293042  0.32020648     0.74300
Zr33       Zr  0.58468915  0.07432065  0.25161721     2.77500
O34         O  0.65980998  0.09286970  0.25485747    -0.96500
O35         O  0.60626465  0.14964865  0.25375398    -0.77300
Zr36       Zr  0.53624246  0.94720260  0.24855636     2.70100
O37         O  0.60707078  0.95403189  0.24826854    -0.78500
O38         O  0.50210873  0.86946172  0.24893394    -0.97600
Zr39       Zr  0.49584977  0.99655686  0.29563476     2.21500
Zr40       Zr  0.50451769  0.00386496  0.20084679     2.11100
O41         O  0.56512833  0.01302340  0.22513097    -2.46300
O42         O  0.55289683  0.00814726  0.27085532    -0.78300
O43         O  0.52742045  0.06820894  0.22482622    -0.70500
O44         O  0.47257827  0.93157333  0.27223189    -2.31500
O45         O  0.52327171  0.06472160  0.27543348    -2.27700
O46         O  0.48011851  0.94320746  0.22504368    -0.72300
H47         H  0.41828899  0.98934723  0.21013734     0.79700
H48         H  0.46248421  0.90702248  0.28370174     0.80800
H49         H  0.58890612  0.01763521  0.21402044     0.83000
H50         H  0.53128207  0.08736851  0.28814242     0.80600
H51         H  0.40489004  0.84928584  0.22357335     0.43700
H52         H  0.52555514  0.86433527  0.24374421     0.42600
H53         H  0.62781111  0.98510875  0.25056168     0.42300
H54         H  0.66311058  0.07568292  0.24094450     0.40300
H55         H  0.63555107  0.16517199  0.24585016     0.43400
H56         H  0.47825355  0.13808764  0.25560768     0.38200
H57         H  0.37356383  0.02068858  0.24510934     0.44300
H58         H  0.33826643  0.92485221  0.23198556     0.40700
H59         H  0.67688339  0.12282548  0.24845346     0.45600
H60         H  0.50908302  0.14191530  0.23265548     0.44300
H61         H  0.32590440  0.87685266  0.23437106     0.44500
H62         H  0.49709831  0.86151173  0.26781643     0.44800
O63         O  0.06619976  0.61066318  0.30544307    -0.74000
O64         O  0.02654766  0.55097958  0.33062290    -0.52900
C65         C  0.05143786  0.59129979  0.32773711     0.79700
O66         O  0.92807588  0.54934444  0.20560611    -0.58600
O67         O  0.96607000  0.53146111  0.17799804    -0.51700
C68         C  0.94191693  0.54679858  0.18258693     0.71700
O69         O  0.93482943  0.55646137  0.29585210    -0.73200
O70         O  0.94403909  0.51436513  0.32485794    -0.53800
C71         C  0.93670317  0.54425045  0.31948706     0.77700
O72         O  0.08907977  0.62353355  0.21548452    -0.58300
O73         O  0.05508915  0.57234962  0.18392005    -0.51500
C74         C  0.08122195  0.61068865  0.19131352     0.74300
Zr75       Zr  0.06278510  0.58840380  0.25886906     2.54700
O76         O  0.07571195  0.66100094  0.26030066    -0.78900
O77         O  0.13982717  0.61837630  0.26631039    -0.92300
Zr78       Zr  0.93399813  0.52793993  0.25121984     2.64700
O79         O  0.90986291  0.57948125  0.25176177    -0.97300
O80         O  0.85601564  0.47865630  0.25219744    -0.79300
O81         O  0.99467280  0.55017613  0.27580779    -0.82700
O82         O  0.00266391  0.56459813  0.22996223    -2.17400
O83         O  0.07635919  0.46439206  0.20995645    -0.66100
O84         O  0.04747310  0.49028868  0.18066394    -0.50600
C85         C  0.06858511  0.47198469  0.18633240     0.72700
O86         O  0.92262905  0.37938145  0.28955124    -0.59000
O87         O  0.93841822  0.42890460  0.32150838    -0.51000
C88         C  0.92563069  0.39089246  0.31386488     0.74500
O89         O  0.92152911  0.39350432  0.20035153    -0.70400
O90         O  0.96278875  0.45264056  0.17511887    -0.49100
C91         C  0.93670846  0.41248577  0.17800047     0.75900
O92         O  0.06793026  0.46006485  0.30066173    -0.65700
O93         O  0.02533341  0.47259755  0.32785699    -0.52900
C94         C  0.05305863  0.46152649  0.32353399     0.74300
Zr95       Zr  0.05769709  0.47653937  0.25492210     2.77500
O96         O  0.06256545  0.41227682  0.25757649    -0.96500
O97         O  0.13632293  0.52080850  0.25577259    -0.77300
Zr98       Zr  0.92831123  0.41578574  0.24729524     2.70100
O99         O  0.89797139  0.33901510  0.24162341    -0.78500
O100        O  0.85149350  0.39133685  0.24826745    -0.97600
Zr101      Zr  0.98706582  0.49450032  0.30007805     2.21500
Zr102      Zr  0.00352148  0.50866236  0.20591218     2.11100
O103        O  0.99672147  0.44653061  0.22639315    -2.46300
O104        O  0.98972942  0.44715621  0.27233297    -0.78300
O105        O  0.05974642  0.53375864  0.23466921    -0.70500
O106        O  0.92242690  0.46591493  0.27472860    -2.31500
O107        O  0.05864782  0.52996676  0.28258612    -2.27700
O108        O  0.93912443  0.47711076  0.22750893    -0.72300
H109        H  0.00601901  0.58799780  0.21917105     0.79700
H110        H  0.89672804  0.45297845  0.28557124     0.80800
H111        H  0.99720428  0.42605819  0.21453972     0.83000
H112        H  0.08064066  0.53983647  0.29607165     0.80600
H113        H  0.84654493  0.48557859  0.26882579     0.43700
H114        H  0.84005860  0.37549764  0.23151836     0.42600
H115        H  0.92343519  0.33553098  0.24074142     0.42300
H116        H  0.04314349  0.39328987  0.24349828     0.40300
H117        H  0.14312335  0.53542203  0.27307865     0.43400
H118        H  0.15172408  0.64961733  0.26803463     0.38200
H119        H  0.04849492  0.65819213  0.25375646     0.44300
H120        H  0.93329639  0.60542685  0.24300320     0.40700
H121        H  0.09208388  0.42153665  0.25121322     0.45600
H122        H  0.15110359  0.61517642  0.24921923     0.44300
H123        H  0.88519321  0.56799975  0.23933614     0.44500
H124        H  0.83947180  0.36879795  0.26202613     0.44800
O125        O  0.55914888  0.62001376  0.29562926    -0.74000
O126        O  0.53487796  0.56297871  0.32344556    -0.52900
C127        C  0.55280555  0.60302752  0.31877543     0.79700
O128        O  0.39451124  0.47989332  0.20418033    -0.58600
O129        O  0.44937881  0.49778753  0.17515611    -0.51700
C130        C  0.41015751  0.48503161  0.18066947     0.71700
O131        O  0.39550364  0.48051429  0.29482391    -0.73200
O132        O  0.44944407  0.49181903  0.32309627    -0.53800
C133        C  0.41067993  0.48179189  0.31812125     0.77700
O134        O  0.56941518  0.62406518  0.20469074    -0.58300
O135        O  0.53827409  0.56880070  0.17544689    -0.51500
C136        C  0.56125139  0.60852260  0.18107168     0.74300
Zr137      Zr  0.54628437  0.59366051  0.24961797     2.54700
O138        O  0.51224326  0.63662315  0.24827686    -0.78900
O139        O  0.61721339  0.65890740  0.25242714    -0.92300
Zr140      Zr  0.42507647  0.49465662  0.24927007     2.64700
O141        O  0.41118545  0.55346097  0.25043788    -0.97300
O142        O  0.34693716  0.44649175  0.24913642    -0.79300
O143        O  0.48734356  0.54042000  0.27136664    -0.82700
O144        O  0.48430821  0.54720769  0.22376211    -2.17400
O145        O  0.62024172  0.52850908  0.20257611    -0.66100
O146        O  0.56505434  0.51387448  0.17449100    -0.50600
C147        C  0.60398992  0.52479390  0.17939877     0.72700
O148        O  0.45334374  0.38210861  0.29191860    -0.59000
O149        O  0.47925081  0.43734843  0.32119940    -0.51000
C150        C  0.45987691  0.39756875  0.31549074     0.74500
O151        O  0.44972094  0.38570693  0.20155572    -0.70400
O152        O  0.47771082  0.44298136  0.17374788    -0.49100
C153        C  0.45716592  0.40279439  0.17841488     0.75900
O154        O  0.61850015  0.51751367  0.29270638    -0.65700
O155        O  0.56525166  0.50661102  0.32145843    -0.52900
C156        C  0.60311393  0.51432278  0.31610897     0.74300
Zr157      Zr  0.59030501  0.51249151  0.24765681     2.77500
O158        O  0.60983667  0.45788657  0.24325990    -0.96500
O159        O  0.66690482  0.56693497  0.24984704    -0.77300
Zr160      Zr  0.46905674  0.41314985  0.24707022     2.70100
O161        O  0.50179073  0.36901485  0.24518699    -0.78500
O162        O  0.39671690  0.34972526  0.24851114    -0.97600
Zr163      Zr  0.50761060  0.50143014  0.29584535     2.21500
Zr164      Zr  0.50726680  0.50502018  0.20118560     2.11100
O165        O  0.53072473  0.46169536  0.22173939    -2.46300
O166        O  0.52824018  0.46474171  0.26942372    -0.78300
O167        O  0.56343807  0.54991465  0.22733782    -0.70500
O168        O  0.44415793  0.45040263  0.27298277    -2.31500
O169        O  0.57117351  0.55448401  0.27381572    -2.27700
O170        O  0.45135636  0.45827518  0.22689631    -0.72300
H171        H  0.47610560  0.56270162  0.21197966     0.79700
H172        H  0.42091871  0.43044080  0.28428810     0.80800
H173        H  0.53896007  0.44709051  0.20926931     0.83000
H174        H  0.59429178  0.57304328  0.28565327     0.80600
H175        H  0.34281780  0.41742601  0.25016337     0.43700
H176        H  0.37953950  0.35577132  0.23591795     0.42600
H177        H  0.48027272  0.34273289  0.23577638     0.42300
H178        H  0.64031597  0.47223541  0.24920817     0.40300
H179        H  0.66754950  0.59442901  0.25107932     0.43400
H180        H  0.63219604  0.65373336  0.26702871     0.38200
H181        H  0.53243549  0.66224662  0.23782564     0.44300
H182        H  0.38988413  0.54671740  0.23616618     0.40700
H183        H  0.59327072  0.43677147  0.25727922     0.45600
H184        H  0.61136940  0.68091428  0.25931942     0.44300
H185        H  0.39454774  0.54883726  0.26687871     0.44500
H186        H  0.39963020  0.32681391  0.24004079     0.44800
O187        O  0.80301111  0.45660439  0.00657699    -0.74000
O188        O  0.87305255  0.51183862  0.00317516    -0.52900
C189        C  0.85581064  0.48231957  0.49864494     0.79700
O190        O  0.73325578  0.56641586  0.42554692    -0.58600
O191        O  0.68146218  0.55428694  0.45602280    -0.51700
C192        C  0.69520844  0.55712759  0.43219331     0.71700
O193        O  0.86445326  0.58896994  0.42738731    -0.73200
O194        O  0.91143725  0.59317976  0.45914610    -0.53800
C195        C  0.90005658  0.59270115  0.43492090     0.77700
O196        O  0.68338431  0.44744548  0.49874289    -0.58300
O197        O  0.65277915  0.48894532  0.49866425    -0.51500
C198        C  0.65054299  0.45230533  0.49876988     0.74300
Zr199      Zr  0.75179361  0.48074983  0.00242888     2.54700
O200        O  0.73959498  0.43705416  0.46186120    -0.78900
O201        O  0.72621885  0.42822956  0.03798507    -0.92300
Zr202      Zr  0.79899144  0.57964205  0.44598951     2.64700
O203        O  0.78273205  0.52917410  0.41003200    -0.97300
O204        O  0.82284872  0.64082783  0.41669306    -0.79300
O205        O  0.81909839  0.53839224  0.47182821    -0.82700
O206        O  0.74065781  0.52602749  0.47090820    -2.17400
O207        O  0.72565711  0.56521743  0.07017731    -0.66100
O208        O  0.67650203  0.55604811  0.03853956    -0.50600
C209        C  0.68883116  0.55831569  0.06261476     0.72700
O210        O  0.91145168  0.70648878  0.50206971    -0.59000
O211        O  0.93067357  0.64814002  0.99918229    -0.51000
C212        C  0.93931166  0.68720547  0.99774701     0.74500
O213        O  0.77261891  0.68578129  0.50074185    -0.70400
O214        O  0.70657396  0.62359608  0.49881618    -0.49100
C215        C  0.73048530  0.66484267  0.49970900     0.75900
O216        O  0.85563385  0.58448465  0.07282160    -0.65700
O217        O  0.90169245  0.58287518  0.04256343    -0.52900
C218        C  0.89010876  0.58486628  0.06635150     0.74300
Zr219      Zr  0.79239038  0.57761360  0.05209705     2.77500
O220        O  0.81676365  0.64211634  0.07834450    -0.96500
O221        O  0.77277785  0.53232430  0.09106646    -0.77300
Zr222      Zr  0.83035977  0.66612771  0.50129759     2.70100
O223        O  0.85165548  0.71765013  0.02641181    -0.78500
O224        O  0.85156583  0.71884058  0.46617192    -0.97600
Zr225      Zr  0.86701254  0.57677316  0.99976018     2.21500
Zr226      Zr  0.71649384  0.56231133  0.49883175     2.11100
O227        O  0.77141279  0.61415172  0.02284061    -2.46300
O228        O  0.84987659  0.62294823  0.02384095    -0.78300
O229        O  0.73362373  0.52411983  0.02739410    -0.70500
O230        O  0.85431584  0.62852637  0.47431595    -2.31500
O231        O  0.80938824  0.53180865  0.02888743    -2.27700
O232        O  0.77460098  0.61618603  0.47277697    -0.72300
H233        H  0.71781375  0.50599671  0.45940328     0.79700
H234        H  0.87861078  0.64888709  0.46378165     0.80800
H235        H  0.76218415  0.63055344  0.03293224     0.83000
H236        H  0.81790459  0.51714865  0.04113104     0.80600
H237        H  0.82915859  0.63157330  0.39978632     0.43700
H238        H  0.82591121  0.70709094  0.45452820     0.42600
H239        H  0.86671106  0.71106027  0.04026374     0.42300
H240        H  0.80871992  0.63150252  0.09664873     0.40300
H241        H  0.75366828  0.50286339  0.08431230     0.43400
H242        H  0.75042244  0.43969925  0.05074629     0.38200
H243        H  0.76182482  0.45261599  0.44813549     0.44300
H244        H  0.75296693  0.50519086  0.41355189     0.40700
H245        H  0.84873926  0.65683374  0.07805397     0.45600
H246        H  0.72520686  0.40272771  0.03025649     0.44300
H247        H  0.78000878  0.54359711  0.39422818     0.44500
H248        H  0.85287940  0.74394168  0.47474045     0.44800
O249        O  0.67689278  0.23277890  0.99836953    -0.74000
O250        O  0.64594893  0.16010886  0.00063462    -0.52900
C251        C  0.63922247  0.18655538  0.49200780     0.79700
O252        O  0.85012379  0.26724405  0.42274854    -0.58600
O253        O  0.89729322  0.31731584  0.45199654    -0.51700
C254        C  0.88500629  0.30204789  0.42853720     0.71700
O255        O  0.71894264  0.15523591  0.42749915    -0.73200
O256        O  0.67163870  0.11477783  0.46009434    -0.53800
C257        C  0.68270544  0.12438376  0.43579433     0.77700
O258        O  0.80011942  0.34545664  0.48846780    -0.58300
O259        O  0.87033955  0.36206192  0.49122842    -0.51500
C260        C  0.84108621  0.37239361  0.48827268     0.74300
Zr261      Zr  0.75594887  0.27303518  0.99827243     2.54700
O262        O  0.72243562  0.29926071  0.46161932    -0.78900
O263        O  0.73586055  0.30580213  0.03296732    -0.92300
Zr264      Zr  0.78640596  0.21217372  0.44430081     2.64700
O265        O  0.76362816  0.23738273  0.40663156    -0.97300
O266        O  0.80942906  0.17220379  0.41727491    -0.79300
O267        O  0.72905597  0.20663743  0.46993217    -0.82700
O268        O  0.80528902  0.27621033  0.46712455    -2.17400
O269        O  0.85429629  0.28372498  0.07069253    -0.66100
O270        O  0.90242153  0.32480943  0.03864113    -0.50600
C271        C  0.88938753  0.31657445  0.06281101     0.72700
O272        O  0.77229480  0.08961131  0.50368332    -0.59000
O273        O  0.70119272  0.08067935  0.00102656    -0.51000
C274        C  0.72537255  0.06402977  0.00073664     0.74500
O275        O  0.90616648  0.21232591  0.50013129    -0.70400
O276        O  0.92743496  0.28343613  0.49747556    -0.49100
C277        C  0.93552211  0.25274872  0.49908015     0.75900
O278        O  0.72734786  0.16794012  0.07354127    -0.65700
O279        O  0.67544976  0.12548110  0.04363087    -0.52900
C280        C  0.68943475  0.13781354  0.06726198     0.74300
Zr281      Zr  0.79282350  0.22106567  0.05273482     2.77500
O282        O  0.82160798  0.18849276  0.08187084    -0.96500
O283        O  0.77327569  0.25009980  0.08983671    -0.77300
Zr284      Zr  0.82573051  0.16846536  0.50160626     2.70100
O285        O  0.84579212  0.13711475  0.03686582    -0.78500
O286        O  0.84633530  0.13497661  0.46771804    -0.97600
Zr287      Zr  0.71021415  0.15199196  0.00076291     2.21500
Zr288      Zr  0.86412673  0.29086757  0.49553918     2.11100
O289        O  0.84865423  0.22710886  0.02548968    -2.46300
O290        O  0.76816989  0.15823755  0.02735291    -0.78300
O291        O  0.81309576  0.28123136  0.02536819    -0.70500
O292        O  0.76673897  0.15511434  0.47397622    -2.31500
O293        O  0.73473876  0.21452703  0.02722715    -2.27700
O294        O  0.84507762  0.22636695  0.47179730    -0.72300
H295        H  0.81346175  0.29919839  0.45464078     0.79700
H296        H  0.75706883  0.12904242  0.46407700     0.80800
H297        H  0.87272176  0.23199995  0.03642132     0.83000
H298        H  0.71191946  0.21176871  0.03855926     0.80600
H299        H  0.79802346  0.17194587  0.39948569     0.43700
H300        H  0.86363218  0.15827337  0.45497528     0.42600
H301        H  0.81844391  0.11783389  0.04629028     0.42300
H302        H  0.82161830  0.20007068  0.09952607     0.40300
H303        H  0.75006558  0.25439519  0.08296186     0.43400
H304        H  0.71342370  0.28147303  0.04340007     0.38200
H305        H  0.72632133  0.28837221  0.44459448     0.44300
H306        H  0.77774187  0.26878143  0.40909685     0.40700
H307        H  0.79852059  0.15788456  0.08282825     0.45600
H308        H  0.72000794  0.31755557  0.02371913     0.44300
H309        H  0.77856584  0.23397746  0.39128714     0.44500
H310        H  0.86758121  0.12945436  0.47642578     0.44800
O311        O  0.34320763  0.79454870  0.00071248    -0.74000
O312        O  0.36040998  0.86351340  0.99387992    -0.52900
C313        C  0.36122624  0.81752574  0.48910350     0.79700
O314        O  0.13731613  0.71529797  0.43338479    -0.58600
O315        O  0.09687835  0.67303017  0.46772462    -0.51700
C316        C  0.10441411  0.68198914  0.44295950     0.71700
O317        O  0.26547464  0.82946699  0.42390460    -0.73200
O318        O  0.31829210  0.87736348  0.45161106    -0.53800
C319        C  0.30281196  0.86206165  0.42860272     0.77700
O320        O  0.20414267  0.66004195  0.50301424    -0.58300
O321        O  0.13374436  0.64111916  0.50757826    -0.51500
C322        C  0.16374935  0.63192807  0.50509714     0.74300
Zr323      Zr  0.26507768  0.74463204  0.00360594     2.54700
O324        O  0.27507214  0.69774734  0.47081879    -0.78900
O325        O  0.29917643  0.72459470  0.03759246    -0.92300
Zr326      Zr  0.20339911  0.77694025  0.44789493     2.64700
O327        O  0.22030379  0.74301727  0.41223913    -0.97300
O328        O  0.17287053  0.80725864  0.41831045    -0.79300
O329        O  0.26648737  0.79057878  0.47070998    -0.82700
O330        O  0.19218385  0.72035557  0.47607677    -2.17400
O331        O  0.16886820  0.73507706  0.07895779    -0.66100
O332        O  0.12028609  0.68318898  0.05121693    -0.50600
C333        C  0.13551344  0.69845129  0.07429569     0.72700
O334        O  0.22405815  0.91116846  0.49930167    -0.59000
O335        O  0.28881063  0.92331788  0.99242642    -0.51000
C336        C  0.26035546  0.93437765  0.99309656     0.74500
O337        O  0.09063440  0.78442102  0.50771185    -0.70400
O338        O  0.07418626  0.71480076  0.51206352    -0.49100
C339        C  0.06371842  0.74363467  0.51150042     0.75900
O340        O  0.28618051  0.85862666  0.06987651    -0.65700
O341        O  0.33014226  0.89761192  0.03572791    -0.52900
C342        C  0.32097394  0.88983571  0.06044239     0.74300
Zr343      Zr  0.22188565  0.79630117  0.05489569     2.77500
O344        O  0.19114504  0.83073597  0.08065901    -0.96500
O345        O  0.25195085  0.78255222  0.09403277    -0.77300
Zr346      Zr  0.17139306  0.83190312  0.50256024     2.70100
O347        O  0.14191919  0.85752475  0.03168520    -0.78500
O348        O  0.14308976  0.85664738  0.46769494    -0.97600
Zr349      Zr  0.28995471  0.85853038  0.99611348     2.21500
Zr350      Zr  0.13860899  0.71132411  0.50714239     2.11100
O351        O  0.15871070  0.77435340  0.02994966    -2.46300
O352        O  0.23244550  0.84962913  0.02430563    -0.78300
O353        O  0.20880611  0.73362599  0.03265259    -0.70500
O354        O  0.22613814  0.84018185  0.47239829    -2.31500
O355        O  0.27981043  0.80600855  0.02779476    -2.27700
O356        O  0.14933816  0.76797808  0.47794526    -0.72300
H357        H  0.18264559  0.69462962  0.46584250     0.79700
H358        H  0.23301785  0.86348346  0.46039876     0.80800
H359        H  0.13495586  0.76787533  0.04164563     0.83000
H360        H  0.30554417  0.81511696  0.03818517     0.80600
H361        H  0.18195505  0.80390485  0.40049991     0.43700
H362        H  0.12125922  0.83013844  0.45861935     0.42600
H363        H  0.16718831  0.87541814  0.04312106     0.42300
H364        H  0.16531330  0.80688517  0.08930270     0.40300
H365        H  0.27640729  0.78008436  0.08737804     0.43400
H366        H  0.31447213  0.75018612  0.04904512     0.38200
H367        H  0.25531228  0.69040523  0.45558993     0.44300
H368        H  0.20992130  0.71344434  0.41842314     0.40700
H369        H  0.21197434  0.84525953  0.09520978     0.45600
H370        H  0.32252097  0.72294548  0.02841932     0.44300
H371        H  0.20040797  0.73960100  0.39772797     0.44500
H372        H  0.12595779  0.86684390  0.47705552     0.44800
O373        O  0.58287826  0.85215917  0.42585971    -0.74000
O374        O  0.58272861  0.89715127  0.45722138    -0.52900
C375        C  0.58233477  0.88554885  0.43305548     0.79700
O376        O  0.45964350  0.67098259  0.49489582    -0.58600
O377        O  0.50781863  0.64810351  0.49753207    -0.51700
C378        C  0.46896812  0.64130140  0.49498854     0.71700
O379        O  0.45909423  0.78110510  0.00592062    -0.73200
O380        O  0.50699433  0.85299091  0.00169268    -0.53800
C381        C  0.47580777  0.83660938  0.49703251     0.77700
O382        O  0.58579476  0.73376769  0.42608046    -0.58300
O383        O  0.58111030  0.68614095  0.45725503    -0.51500
C384        C  0.58388248  0.69910813  0.43325708     0.74300
Zr385      Zr  0.58447355  0.79316420  0.44583255     2.54700
O386        O  0.52802481  0.76360264  0.41239649    -0.78900
O387        O  0.64385792  0.82594785  0.41432175    -0.92300
Zr388      Zr  0.49308027  0.73909995  0.00124920     2.64700
O389        O  0.43345118  0.72183567  0.46618769    -0.97300
O390        O  0.43942847  0.70716360  0.03623152    -0.79300
O391        O  0.53790316  0.80661660  0.47150000    -0.82700
O392        O  0.53578219  0.73334565  0.47153585    -2.17400
O393        O  0.70215963  0.78655215  0.50088994    -0.66100
O394        O  0.64631244  0.71667703  0.50032101    -0.50600
C395        C  0.68709588  0.74542199  0.50062746     0.72700
O396        O  0.58755178  0.84939403  0.07301881    -0.59000
O397        O  0.57951753  0.89047225  0.04203625    -0.51000
C398        C  0.58344239  0.88092433  0.06600846     0.74500
O399        O  0.58999252  0.73039824  0.07243317    -0.70400
O400        O  0.58885502  0.68491458  0.04095664    -0.49100
C401        C  0.59044286  0.69700999  0.06510412     0.75900
O402        O  0.70529466  0.91669152  0.50217651    -0.65700
O403        O  0.64484476  0.92731457  0.99959795    -0.52900
C404        C  0.68562512  0.94065606  0.99948346     0.74300
Zr405      Zr  0.67359711  0.83666226  0.50117445     2.77500
O406        O  0.73125573  0.86562732  0.02977252    -0.96500
O407        O  0.72889119  0.86330917  0.46700002    -0.77300
Zr408      Zr  0.58754662  0.78938201  0.05304633     2.70100
O409        O  0.64923238  0.82041720  0.08286091    -0.78500
O410        O  0.53421041  0.76271544  0.08839839    -0.97600
Zr411      Zr  0.57840882  0.85805940  0.99926470     2.21500
Zr412      Zr  0.57858115  0.71694170  0.49975769     2.11100
O413        O  0.63202380  0.77698588  0.02473012    -2.46300
O414        O  0.62888145  0.84840779  0.02485709    -0.78300
O415        O  0.62761410  0.77761896  0.47335546    -0.70500
O416        O  0.53764396  0.79883883  0.02817022    -2.31500
O417        O  0.62996011  0.85188018  0.47327628    -2.27700
O418        O  0.54012493  0.72780874  0.02796441    -0.72300
H419        H  0.51813611  0.70967422  0.45987648     0.79700
H420        H  0.52003600  0.80425698  0.04002555     0.80800
H421        H  0.65093290  0.77127205  0.03514763     0.83000
H422        H  0.64820418  0.87661185  0.46246612     0.80600
H423        H  0.45505597  0.72274800  0.05235612     0.43700
H424        H  0.51779832  0.73114691  0.08628801     0.42600
H425        H  0.67006793  0.84850364  0.07490473     0.42300
H426        H  0.72556343  0.84062592  0.04064003     0.40300
H427        H  0.71771013  0.87390593  0.45293358     0.43400
H428        H  0.62961141  0.81815386  0.39685213     0.38200
H429        H  0.50179829  0.75891139  0.42171301     0.44300
H430        H  0.43911974  0.70418924  0.45386260     0.40700
H431        H  0.75798540  0.87328719  0.01990481     0.45600
H432        H  0.65843022  0.80922351  0.41580927     0.44300
H433        H  0.40703596  0.70093113  0.47587624     0.44500
H434        H  0.55131113  0.76788500  0.10469943     0.44800
O435        O  0.19880303  0.54143304  0.00473243    -0.74000
O436        O  0.12825331  0.48717724  0.00381815    -0.52900
C437        C  0.18686152  0.54047865  0.49820717     0.79700
O438        O  0.27339475  0.42580136  0.42566912    -0.58600
O439        O  0.31911878  0.42334459  0.45586059    -0.51700
C440        C  0.30781640  0.42607273  0.43208706     0.71700
O441        O  0.15500098  0.43098541  0.42894533    -0.73200
O442        O  0.11449092  0.43653311  0.46161385    -0.53800
C443        C  0.12365275  0.43482683  0.43723131     0.77700
O444        O  0.34521764  0.53943138  0.50145665    -0.58300
O445        O  0.35914395  0.48497228  0.50091624    -0.51500
C446        C  0.37145353  0.52534469  0.50109087     0.74300
Zr447      Zr  0.24949555  0.51657886  0.00250836     2.54700
O448        O  0.30601505  0.57325671  0.47104395    -0.78900
O449        O  0.27646409  0.57373430  0.03516686    -0.92300
Zr450      Zr  0.21380929  0.42573066  0.44688883     2.64700
O451        O  0.24115031  0.48158250  0.41328573    -0.97300
O452        O  0.18198396  0.36762443  0.41487877    -0.79300
O453        O  0.20770098  0.47475103  0.47451906    -0.82700
O454        O  0.27622685  0.46805024  0.47289698    -2.17400
O455        O  0.27691983  0.43788928  0.07438490    -0.66100
O456        O  0.32226777  0.43993356  0.04222442    -0.50600
C457        C  0.31221643  0.44140484  0.06643728     0.72700
O458        O  0.08233893  0.31035433  0.50237281    -0.59000
O459        O  0.06814573  0.35429607  0.00811244    -0.51000
C460        C  0.05814641  0.31498645  0.00884079     0.74500
O461        O  0.20403312  0.29761293  0.49879245    -0.70400
O462        O  0.27644730  0.34775498  0.49632683    -0.49100
C463        C  0.24436025  0.30854425  0.49700323     0.75900
O464        O  0.14931137  0.42365824  0.07758429    -0.65700
O465        O  0.10307200  0.42456874  0.04718616    -0.52900
C466        C  0.11561447  0.42465625  0.07104778     0.74300
Zr467      Zr  0.21000229  0.42572587  0.05660776     2.77500
O468        O  0.18587309  0.36399319  0.08545030    -0.96500
O469        O  0.23203045  0.47471864  0.09384616    -0.77300
Zr470      Zr  0.16140067  0.33408414  0.50009548     2.70100
O471        O  0.14418125  0.28154800  0.03689096    -0.78500
O472        O  0.12956950  0.28425085  0.46344164    -0.97600
Zr473      Zr  0.13355429  0.42262409  0.00414411     2.21500
Zr474      Zr  0.28601934  0.41919965  0.49913985     2.11100
O475        O  0.22712442  0.38445488  0.02889797    -2.46300
O476        O  0.15019201  0.37823393  0.03049718    -0.78300
O477        O  0.26769472  0.47543677  0.02962658    -0.70500
O478        O  0.15312317  0.38388084  0.47421621    -2.31500
O479        O  0.19323375  0.46990036  0.03124206    -2.27700
O480        O  0.22285722  0.37659539  0.47253766    -0.72300
H481        H  0.30101524  0.48526154  0.46177905     0.79700
H482        H  0.12736193  0.36833928  0.46358741     0.80800
H483        H  0.23653907  0.36878377  0.03959232     0.83000
H484        H  0.18611564  0.48657938  0.04270082     0.80600
H485        H  0.15128813  0.34971347  0.42021813     0.43700
H486        H  0.15463265  0.28834857  0.45300266     0.42600
H487        H  0.17045791  0.29091816  0.04766516     0.42300
H488        H  0.18664129  0.37522070  0.10333829     0.40300
H489        H  0.24643674  0.50360164  0.08573162     0.43400
H490        H  0.25193936  0.56529809  0.04737788     0.38200
H491        H  0.28929972  0.56242719  0.45448653     0.44300
H492        H  0.27306132  0.49676005  0.41481742     0.40700
H493        H  0.15468562  0.34523305  0.08149483     0.45600
H494        H  0.27959962  0.59886460  0.02552153     0.44300
H495        H  0.23459659  0.46593544  0.39634878     0.44500
H496        H  0.11756209  0.25556259  0.47156914     0.44800
O497        O  0.42059489  0.14811161  0.42450036    -0.74000
O498        O  0.41607305  0.10144940  0.45626032    -0.52900
C499        C  0.41822971  0.11343648  0.43206191     0.79700
O500        O  0.54059525  0.32882295  0.50206938    -0.58600
O501        O  0.49195338  0.35067496  0.49847571    -0.51700
C502        C  0.53096337  0.35828448  0.50037797     0.71700
O503        O  0.53387683  0.20761608  0.99739923    -0.73200
O504        O  0.48315521  0.13629778  0.99813774    -0.53800
C505        C  0.52239298  0.16289537  0.49862198     0.77700
O506        O  0.42298229  0.26969819  0.42353634    -0.58300
O507        O  0.42591318  0.31652974  0.45460864    -0.51500
C508        C  0.42476187  0.30429183  0.43060336     0.74300
Zr509      Zr  0.42188077  0.20928906  0.44343728     2.54700
O510        O  0.48089909  0.23755289  0.41167071    -0.78900
O511        O  0.36695088  0.18297605  0.40903783    -0.92300
Zr512      Zr  0.50163998  0.25195301  0.99679438     2.64700
O513        O  0.56924744  0.28203906  0.47115238    -0.97300
O514        O  0.55955699  0.28100331  0.02928569    -0.79300
O515        O  0.46455533  0.19425704  0.47177093    -0.82700
O516        O  0.46831588  0.26779558  0.47092725    -2.17400
O517        O  0.29942786  0.21791529  0.49112905    -0.66100
O518        O  0.35856367  0.28603627  0.49233258    -0.50600
C519        C  0.31777198  0.25959875  0.49044878     0.72700
O520        O  0.41338843  0.14724916  0.07233044    -0.59000
O521        O  0.41491208  0.10262579  0.04115937    -0.51000
C522        C  0.41473722  0.11420355  0.06520133     0.74500
O523        O  0.41694897  0.26993900  0.07172099    -0.70400
O524        O  0.41539844  0.31412161  0.04023667    -0.49100
C525        C  0.41711335  0.30367811  0.06432236     0.75900
O526        O  0.29196857  0.08505292  0.49517536    -0.65700
O527        O  0.34323791  0.06650619  0.99984688    -0.52900
C528        C  0.30289665  0.05516059  0.00130288     0.74300
Zr529      Zr  0.32529443  0.16510994  0.49432493     2.77500
O530        O  0.26806438  0.13314435  0.03638653    -0.96500
O531        O  0.27575428  0.14007149  0.45704045    -0.77300
Zr532      Zr  0.41365413  0.20764039  0.05268273     2.70100
O533        O  0.35764115  0.18040628  0.08642260    -0.78500
O534        O  0.47297982  0.23628856  0.08420867    -0.97600
Zr535      Zr  0.41265870  0.13374915  0.99862111     2.21500
Zr536      Zr  0.42260360  0.28252621  0.49704800     2.11100
O537        O  0.36711235  0.22059734  0.02669299    -2.46300
O538        O  0.36723872  0.14738132  0.02656930    -0.78300
O539        O  0.37619876  0.22448499  0.46852277    -0.70500
O540        O  0.45867756  0.19416868  0.02552056    -2.31500
O541        O  0.37195118  0.15004061  0.46913102    -2.27700
O542        O  0.45886603  0.26664427  0.02526393    -0.72300
H543        H  0.48783011  0.29228486  0.46030413     0.79700
H544        H  0.47711575  0.18842448  0.03639839     0.80800
H545        H  0.35015496  0.22769346  0.03801652     0.83000
H546        H  0.35455863  0.12581617  0.45778692     0.80600
H547        H  0.54637680  0.26326684  0.04522158     0.43700
H548        H  0.49277939  0.26622398  0.07842555     0.42600
H549        H  0.33581149  0.15122730  0.08036652     0.42300
H550        H  0.27599604  0.15854507  0.04747088     0.40300
H551        H  0.28982762  0.16339381  0.44386132     0.43400
H552        H  0.34742479  0.15213281  0.41295519     0.38200
H553        H  0.50714955  0.24689361  0.42246420     0.44300
H554        H  0.56504737  0.30148933  0.45953788     0.40700
H555        H  0.24029209  0.12606542  0.02809263     0.45600
H556        H  0.38240088  0.18347146  0.39278530     0.44300
H557        H  0.59447053  0.30138641  0.48224257     0.44500
H558        H  0.46028521  0.23898287  0.10087125     0.44800
C559        C  0.25550468  0.27386335  0.49641062    -0.15200
C560        C  0.29366498  0.28241186  0.48602518    -0.30400
H561        H  0.32159965  0.32795973  0.99772716     0.13800
H562        H  0.31308407  0.31343399  0.47647506     0.14400
C563        C  0.43015011  0.59803254  0.49013268    -0.12800
C564        C  0.41872826  0.55958321  0.50106740    -0.30400
H565        H  0.40508907  0.59975073  0.47921835     0.13800
H566        H  0.39928605  0.60707030  0.01913598     0.14400
C567        C  0.28006797  0.98126097  0.98906601    -0.15200
C568        C  0.27064377  0.00796127  0.00175624    -0.30400
H569        H  0.32345575  0.99725230  0.49236602     0.13800
H570        H  0.24142333  0.99541141  0.01351141     0.14400
C571        C  0.15325539  0.58650828  0.50459216    -0.15200
C572        C  0.18319628  0.57868509  0.49435392    -0.30400
H573        H  0.19751791  0.59691418  0.03219218     0.13800
H574        H  0.21118201  0.60477673  0.48447831     0.14400
C575        C  0.40383688  0.82191794  0.48365316    -0.15200
C576        C  0.44142765  0.84810398  0.49619674    -0.30400
H577        H  0.40190199  0.79565302  0.47225406     0.13800
H578        H  0.40654689  0.80002324  0.02337735     0.14400
C579        C  0.70061263  0.01584500  0.00060663    -0.15200
C580        C  0.71612789  0.98873285  0.00016213    -0.30400
H581        H  0.66570808  0.00162834  0.00063616     0.13800
H582        H  0.75694055  0.00388849  0.50084640     0.14400
C583        C  0.98225167  0.25585139  0.99734620    -0.15200
C584        C  0.01128292  0.28503757  0.01436293    -0.30400
H585        H  0.99225802  0.24319912  0.49421139     0.13800
H586        H  0.99839771  0.29570230  0.03002631     0.14400
C587        C  0.59652266  0.18254812  0.48806613    -0.15200
C588        C  0.55763633  0.15264017  0.49790644    -0.30400
H589        H  0.59872599  0.21043724  0.47854982     0.13800
H590        H  0.55361650  0.12699570  0.99812269     0.14400
C591        C  0.98675654  0.72134790  0.99814978    -0.15200
C592        C  0.01546413  0.71122892  0.00781714    -0.30400
H593        H  0.99985631  0.76012896  0.49112808     0.13800
H594        H  0.00197150  0.67974353  0.01684965     0.14400
C595        C  0.70479354  0.68706019  0.49955156    -0.15200
C596        C  0.71878935  0.72964886  0.50074151    -0.30400
H597        H  0.67457685  0.66785575  0.99034416     0.13800
H598        H  0.75324148  0.75284813  0.50181210     0.14400
C599        C  0.87089950  0.45079561  0.49889854    -0.15200
C600        C  0.85237881  0.41710639  0.48207897    -0.30400
H601        H  0.84066427  0.42019627  0.02979311     0.13800
H602        H  0.83316240  0.41895665  0.46617178     0.14400
C603        C  0.60883610  0.41096086  0.49882751    -0.15200
C604        C  0.56817024  0.40367442  0.50020477    -0.30400
H605        H  0.60147884  0.38394164  0.01203717     0.13800
H606        H  0.56247002  0.43021034  0.50089266     0.14400
C607        C  0.44149369  0.37612431  0.15541047    -0.17300
C608        C  0.43204581  0.36118437  0.13350807     0.06800
C609        C  0.42439381  0.34671079  0.10710381     0.08700
C610        C  0.42002134  0.33102468  0.08554630    -0.18100
C611        C  0.42614108  0.33030723  0.40899714    -0.17300
C612        C  0.42878170  0.34371289  0.38691381     0.06800
C613        C  0.43488661  0.35556500  0.36002328     0.08700
C614        C  0.44398167  0.36962186  0.33790639    -0.18100
C615        C  0.62997036  0.53424188  0.15638268    -0.17300
C616        C  0.64058241  0.54054782  0.13360731     0.06800
C617        C  0.64818116  0.54661354  0.10632545     0.08700
C618        C  0.66036771  0.55182640  0.08386394    -0.18100
C619        C  0.66672105  0.54734101  0.41030654    -0.17300
C620        C  0.65298972  0.53878708  0.38812948     0.06800
C621        C  0.64228553  0.52938750  0.36124883     0.08700
C622        C  0.62949253  0.52184752  0.33884188    -0.18100
C623        C  0.57875318  0.63607673  0.15842481    -0.17300
C624        C  0.58745025  0.64937613  0.13605647     0.06800
C625        C  0.59198556  0.66019629  0.10889646     0.08700
C626        C  0.59246515  0.67244052  0.08666406    -0.18100
C627        C  0.58369016  0.67338992  0.41182874    -0.17300
C628        C  0.58121806  0.65865920  0.39017330     0.06800
C629        C  0.57520625  0.64464626  0.36370706     0.08700
C630        C  0.56687050  0.62974175  0.34177733    -0.18100
C631        C  0.34178274  0.44847021  0.08729078    -0.17300
C632        C  0.35691299  0.45576670  0.10915765     0.06800
C633        C  0.36914107  0.46527030  0.13585297     0.08700
C634        C  0.38280549  0.47413247  0.15804952    -0.18100
C635        C  0.38288010  0.46869469  0.34084244    -0.17300
C636        C  0.36712214  0.45645563  0.36245654     0.06800
C637        C  0.35195248  0.44263245  0.38848550     0.08700
C638        C  0.33578242  0.43274164  0.41015140    -0.18100
C639        C  0.93140719  0.56285798  0.15966668    -0.17300
C640        C  0.92826594  0.57335502  0.13756925     0.06800
C641        C  0.92470188  0.58173048  0.11071347     0.08700
C642        C  0.91519255  0.58541069  0.08845436    -0.18100
C643        C  0.92689767  0.59464577  0.41341427    -0.17300
C644        C  0.93568544  0.59077414  0.39098786     0.06800
C645        C  0.93572752  0.58037715  0.36404911     0.08700
C646        C  0.93387745  0.56656835  0.34209547    -0.18100
C647        C  0.92623534  0.38805588  0.15401517    -0.17300
C648        C  0.92404985  0.37489156  0.13185244     0.06800
C649        C  0.92201451  0.36164142  0.10535932     0.08700
C650        C  0.91372564  0.34575471  0.08365275    -0.18100
C651        C  0.90954493  0.32535328  0.40590032    -0.17300
C652        C  0.91708365  0.33683770  0.38323444     0.06800
C653        C  0.91725541  0.34724130  0.35638129     0.08700
C654        C  0.91755934  0.36127381  0.33479477    -0.18100
C655        C  0.09281142  0.42830538  0.09308779    -0.17300
C656        C  0.08540360  0.43489359  0.11524015     0.06800
C657        C  0.08373296  0.44553013  0.14189318     0.08700
C658        C  0.08101498  0.45683684  0.16383279    -0.18100
C659        C  0.06806033  0.45073423  0.34672258    -0.17300
C660        C  0.07600841  0.44473290  0.36882868     0.06800
C661        C  0.08508167  0.44024618  0.39529357     0.08700
C662        C  0.09802175  0.43756889  0.41667709    -0.18100
C663        C  0.11567008  0.67396480  0.09761985    -0.17300
C664        C  0.10943916  0.66303885  0.12042182     0.06800
C665        C  0.10676205  0.65375334  0.14765055     0.08700
C666        C  0.10051635  0.64023661  0.16991370    -0.18100
C667        C  0.06140792  0.61522503  0.35183209    -0.17300
C668        C  0.06339848  0.62690987  0.37433472     0.06800
C669        C  0.06603006  0.63814384  0.40126301     0.08700
C670        C  0.07632725  0.65297513  0.42314638    -0.18100
C671        C  0.38442256  0.91635565  0.15187809    -0.17300
C672        C  0.37383410  0.91697697  0.12941810     0.06800
C673        C  0.36527100  0.92009480  0.10260138     0.08700
C674        C  0.35153881  0.91465224  0.08041689    -0.18100
C675        C  0.32829353  0.88089407  0.40549963    -0.17300
C676        C  0.34107242  0.88711177  0.38309406     0.06800
C677        C  0.35249419  0.89031962  0.35627124     0.08700
C678        C  0.36690761  0.89716985  0.33424533    -0.18100
C679        C  0.56372129  0.93322806  0.15731073    -0.17300
C680        C  0.57226931  0.92600846  0.13560041     0.06800
C681        C  0.57860904  0.91753733  0.10924604     0.08700
C682        C  0.58181336  0.90554982  0.08762012    -0.18100
C683        C  0.58015971  0.90994712  0.41136539    -0.17300
C684        C  0.57602130  0.92033610  0.38937962     0.06800
C685        C  0.56845789  0.92632460  0.36265344     0.08700
C686        C  0.55921554  0.93165057  0.34059365    -0.18100
C687        C  0.62908094  0.10900573  0.16146375    -0.17300
C688        C  0.64091650  0.11447496  0.13890558     0.06800
C689        C  0.64937110  0.11473592  0.11181228     0.08700
C690        C  0.66155228  0.11909335  0.08935978    -0.18100
C691        C  0.61723903  0.08801713  0.34378753    -0.17300
C692        C  0.62877461  0.09145597  0.36632832     0.06800
C693        C  0.63882756  0.09297644  0.39321871     0.08700
C694        C  0.65311404  0.10084512  0.41521124    -0.18100
C695        C  0.44214053  0.07070746  0.15682424    -0.17300
C696        C  0.43175744  0.07512155  0.13496571     0.06800
C697        C  0.42287107  0.08023575  0.10849498     0.08700
C698        C  0.41771824  0.09029888  0.08673839    -0.18100
C699        C  0.41817393  0.08743864  0.41078497    -0.17300
C700        C  0.42005836  0.07567220  0.38883765     0.06800
C701        C  0.42528244  0.06871515  0.36198359     0.08700
C702        C  0.43338057  0.06297277  0.33979719    -0.18100
O703        O  0.43378818  0.05605596  0.79380510    -0.74000
O704        O  0.46153032  0.02823299  0.82250108    -0.52900
C705        C  0.44019615  0.04645819  0.81723903     0.79700
O706        O  0.39752485  0.90937475  0.69852572    -0.58600
O707        O  0.45315616  0.95658798  0.67240097    -0.51700
C708        C  0.41515547  0.92475507  0.67587015     0.71700
O709        O  0.38513766  0.90849737  0.78907634    -0.73200
O710        O  0.43683008  0.94624989  0.81993798    -0.53800
C711        C  0.39835029  0.91880456  0.81307223     0.77700
O712        O  0.44245726  0.06431904  0.70297737    -0.58300
O713        O  0.47509279  0.04090920  0.67475919    -0.51500
C714        C  0.45220838  0.05764239  0.67966290     0.74300
Zr715      Zr  0.45683374  0.05061112  0.74860754     2.54700
O716        O  0.38302831  0.03624831  0.74717325    -0.78900
O717        O  0.48373904  0.12724923  0.75048216    -0.92300
Zr718      Zr  0.42057902  0.92637374  0.74533477     2.64700
O719        O  0.34216709  0.89216513  0.74256839    -0.97300
O720        O  0.41049149  0.85485361  0.74568686    -0.79300
O721        O  0.44176555  0.98801593  0.76840577    -0.82700
O722        O  0.43799208  0.98975077  0.72182039    -2.17400
O723        O  0.61261699  0.10734656  0.70746480    -0.66100
O724        O  0.56264606  0.06372015  0.67721612    -0.50600
C725        C  0.59951884  0.09513133  0.68363966     0.72700
O726        O  0.55895714  0.94494398  0.79502185    -0.59000
O727        O  0.52586485  0.96788016  0.82314351    -0.51000
C728        C  0.54820342  0.95055107  0.81832950     0.74500
O729        O  0.56257123  0.94740851  0.70393151    -0.70400
O730        O  0.53766193  0.97784584  0.67513747    -0.49100
C731        C  0.55692276  0.95750171  0.68046018     0.75900
O732        O  0.60516299  0.09907575  0.79796027    -0.65700
O733        O  0.55014971  0.05184332  0.82448918    -0.52900
C734        C  0.58784920  0.08404326  0.82066295     0.74300
Zr735      Zr  0.58041137  0.08268320  0.75182040     2.77500
O736        O  0.65834198  0.11373615  0.75554861    -0.96500
O737        O  0.59180038  0.15474612  0.75259071    -0.77300
Zr738      Zr  0.54417323  0.95814897  0.74927873     2.70100
O739        O  0.61878651  0.97479875  0.75044657    -0.78500
O740        O  0.51749646  0.88155117  0.74832160    -0.97600
Zr741      Zr  0.49635859  0.00046502  0.79609151     2.21500
Zr742      Zr  0.50499342  0.00826469  0.70146402     2.11100
O743        O  0.56776029  0.02304053  0.72565053    -2.46300
O744        O  0.55584170  0.01762657  0.77175592    -0.78300
O745        O  0.51930727  0.06416323  0.72815281    -0.70500
O746        O  0.47886250  0.93677629  0.77282268    -2.31500
O747        O  0.51735756  0.06752521  0.77591539    -2.27700
O748        O  0.48578480  0.94863346  0.72565097    -0.72300
H749        H  0.41532246  0.98454049  0.70955668     0.79700
H750        H  0.47072095  0.91260851  0.78432947     0.80800
H751        H  0.59232068  0.02965597  0.71467692     0.83000
H752        H  0.52316126  0.08969919  0.78856597     0.80600
H753        H  0.39222175  0.84087302  0.76137041     0.43700
H754        H  0.50975336  0.87303097  0.72968358     0.42600
H755        H  0.63508371  0.00356259  0.75864071     0.42300
H756        H  0.66459071  0.09490027  0.74473485     0.40300
H757        H  0.59298059  0.16170709  0.77154664     0.43400
H758        H  0.50740581  0.14019166  0.73735183     0.38200
H759        H  0.36530596  0.00570301  0.74202188     0.44300
H760        H  0.33709992  0.90973086  0.72980477     0.40700
H761        H  0.67124504  0.14102958  0.74559237     0.45600
H762        H  0.49847821  0.13667544  0.76774596     0.44300
H763        H  0.33246221  0.86468413  0.73334355     0.44500
H764        H  0.54356669  0.87959879  0.75136826     0.44800
O765        O  0.06894154  0.60351921  0.80534227    -0.74000
O766        O  0.02781557  0.54437444  0.83065746    -0.52900
C767        C  0.05420515  0.58441398  0.82770743     0.79700
O768        O  0.92885859  0.54348222  0.70545879    -0.58600
O769        O  0.96656783  0.52534863  0.67782726    -0.51700
C770        C  0.94302934  0.54135920  0.68247676     0.71700
O771        O  0.93141280  0.54809548  0.79516109    -0.73200
O772        O  0.94431857  0.50884781  0.82451918    -0.53800
C773        C  0.93404211  0.53653690  0.81877524     0.77700
O774        O  0.08612501  0.61698782  0.71505226    -0.58300
O775        O  0.05274198  0.56575657  0.68345569    -0.51500
C776        C  0.07778177  0.60435941  0.69083762     0.74300
Zr777      Zr  0.06307825  0.58115279  0.75860205     2.54700
O778        O  0.07933629  0.65480865  0.76161996    -0.78900
O779        O  0.14022653  0.60842122  0.76290015    -0.92300
Zr780      Zr  0.93393739  0.52118017  0.75094101     2.64700
O781        O  0.91171657  0.57421305  0.75117605    -0.97300
O782        O  0.85591174  0.47211835  0.75122769    -0.79300
O783        O  0.99481209  0.54385949  0.77563346    -0.82700
O784        O  0.00264980  0.55766554  0.73006528    -2.17400
O785        O  0.07896441  0.46119868  0.70985293    -0.66100
O786        O  0.04844778  0.48549389  0.68065691    -0.50600
C787        C  0.07143677  0.46920779  0.68626783     0.72700
O788        O  0.92504181  0.37427198  0.79080747    -0.59000
O789        O  0.93667928  0.42374518  0.82185779    -0.51000
C790        C  0.92714407  0.38626803  0.81499880     0.74500
O791        O  0.91833485  0.38674209  0.70082259    -0.70400
O792        O  0.96105733  0.44562030  0.67569038    -0.49100
C793        C  0.93356592  0.40582440  0.67850353     0.75900
O794        O  0.06110360  0.44526902  0.80011379    -0.65700
O795        O  0.02290244  0.46318266  0.82761937    -0.52900
C796        C  0.04694584  0.44769771  0.82305399     0.74300
Zr797      Zr  0.05676687  0.46864506  0.75495257     2.77500
O798        O  0.05999040  0.40336380  0.75362476    -0.96500
O799        O  0.13479737  0.51187697  0.76105787    -0.77300
Zr800      Zr  0.92786672  0.40867067  0.74789965     2.70100
O801        O  0.90116634  0.33258256  0.74210261    -0.78500
O802        O  0.85068184  0.38209057  0.75077317    -0.97600
Zr803      Zr  0.98703306  0.48831393  0.80013384     2.21500
Zr804      Zr  0.00303132  0.50166504  0.70596528     2.11100
O805        O  0.99596140  0.43930158  0.72629143    -2.46300
O806        O  0.98932123  0.44060657  0.77260943    -0.78300
O807        O  0.05933963  0.52609207  0.73455562    -0.70500
O808        O  0.92233367  0.45949955  0.77482806    -2.31500
O809        O  0.05848259  0.52259953  0.78253871    -2.27700
O810        O  0.93873387  0.46987197  0.72768229    -0.72300
H811        H  0.00576587  0.58112660  0.71945609     0.79700
H812        H  0.89663816  0.44686851  0.78566930     0.80800
H813        H  0.99658476  0.41922695  0.71412996     0.83000
H814        H  0.08045115  0.53202986  0.79601758     0.80600
H815        H  0.84566012  0.48143743  0.76649391     0.43700
H816        H  0.83875151  0.36701265  0.73385815     0.42600
H817        H  0.92755477  0.33103222  0.73951928     0.42300
H818        H  0.03889241  0.38544466  0.73987192     0.40300
H819        H  0.14602260  0.52701069  0.74407246     0.43400
H820        H  0.15258428  0.63844531  0.76882831     0.38200
H821        H  0.05111063  0.65271867  0.75892179     0.44300
H822        H  0.93519659  0.59955992  0.74197306     0.40700
H823        H  0.08862039  0.41225842  0.74587100     0.45600
H824        H  0.15066890  0.61092460  0.74456890     0.44300
H825        H  0.88660124  0.56280795  0.73910146     0.44500
H826        H  0.83984960  0.35886621  0.76406777     0.44800
O827        O  0.54766264  0.61136042  0.79473423    -0.74000
O828        O  0.52246642  0.55444179  0.82272007    -0.52900
C829        C  0.54151231  0.59458837  0.81791939     0.79700
O830        O  0.37986389  0.45639807  0.70398464    -0.58600
O831        O  0.43599358  0.48828955  0.67528916    -0.51700
C832        C  0.39588637  0.46525666  0.68047580     0.71700
O833        O  0.38308498  0.47372500  0.79416577    -0.73200
O834        O  0.43659410  0.48398976  0.82249530    -0.53800
C835        C  0.39842660  0.47567034  0.81749487     0.77700
O836        O  0.55232657  0.61427671  0.70428556    -0.58300
O837        O  0.52429478  0.55901916  0.67501333    -0.51500
C838        C  0.54508679  0.59881399  0.68069903     0.74300
Zr839      Zr  0.53203212  0.58361985  0.74913705     2.54700
O840        O  0.49948191  0.62797940  0.74910002    -0.78900
O841        O  0.60392537  0.64776795  0.74922294    -0.92300
Zr842      Zr  0.41097213  0.48336415  0.74832967     2.64700
O843        O  0.39423968  0.53968468  0.74206291    -0.97300
O844        O  0.33263795  0.43795913  0.75185454    -0.79300
O845        O  0.47293169  0.52998185  0.77064842    -0.82700
O846        O  0.47025117  0.53681121  0.72325342    -2.17400
O847        O  0.60584572  0.51401200  0.70236297    -0.66100
O848        O  0.55258184  0.50465265  0.67411645    -0.50600
C849        C  0.59045891  0.51211779  0.67911524     0.72700
O850        O  0.43901353  0.37256064  0.79208417    -0.59000
O851        O  0.46546661  0.42814012  0.82114093    -0.51000
C852        C  0.44568414  0.38828413  0.81559805     0.74500
O853        O  0.43749222  0.37614047  0.70134906    -0.70400
O854        O  0.46498490  0.43346366  0.67355959    -0.49100
C855        C  0.44482268  0.39331815  0.67822668     0.75900
O856        O  0.60502977  0.50871512  0.79281067    -0.65700
O857        O  0.55161902  0.49745813  0.82153118    -0.52900
C858        C  0.58966422  0.50559287  0.81621025     0.74300
Zr859      Zr  0.57704222  0.50318020  0.74765888     2.77500
O860        O  0.60146040  0.45202856  0.74606373    -0.96500
O861        O  0.65193090  0.56211448  0.74813343    -0.77300
Zr862      Zr  0.45590312  0.40312633  0.74706383     2.70100
O863        O  0.48785503  0.35825094  0.74608535    -0.78500
O864        O  0.38429534  0.33849765  0.74720219    -0.97600
Zr865      Zr  0.49406170  0.49197358  0.79551539     2.21500
Zr866      Zr  0.49433166  0.49538495  0.70084502     2.11100
O867        O  0.51761438  0.45206663  0.72177977    -2.46300
O868        O  0.51495863  0.45515556  0.76934343    -0.78300
O869        O  0.55006549  0.54035243  0.72707994    -0.70500
O870        O  0.43048453  0.44022904  0.77286002    -2.31500
O871        O  0.55742687  0.54502775  0.77348409    -2.27700
O872        O  0.43836668  0.44785221  0.72638529    -0.72300
H873        H  0.46189787  0.55207230  0.71137871     0.79700
H874        H  0.40717485  0.42069256  0.78428297     0.80800
H875        H  0.52601179  0.43747558  0.70940484     0.83000
H876        H  0.58059572  0.56371454  0.78524893     0.80600
H877        H  0.32748691  0.40893277  0.75547680     0.43700
H878        H  0.36819767  0.34265112  0.73285015     0.42600
H879        H  0.51937715  0.37864141  0.74470017     0.42300
H880        H  0.63343599  0.47011103  0.74600577     0.40300
H881        H  0.64998267  0.58829377  0.74828100     0.43400
H882        H  0.61971256  0.64302465  0.76351267     0.38200
H883        H  0.47453398  0.61320719  0.76124558     0.44300
H884        H  0.36523131  0.52494082  0.73377951     0.40700
H885        H  0.59426576  0.43816200  0.76361687     0.45600
H886        H  0.59940337  0.67072619  0.75595985     0.44300
H887        H  0.38925377  0.54666175  0.76008068     0.44500
H888        H  0.38908503  0.31555776  0.74076566     0.44800
O889        O  0.81467426  0.46546576  0.49636436    -0.74000
O890        O  0.88297949  0.52310836  0.50145324    -0.52900
C891        C  0.84396959  0.47164625  0.00622493     0.79700
O892        O  0.72492513  0.55406027  0.92416131    -0.58600
O893        O  0.67659402  0.55086402  0.95454468    -0.51700
C894        C  0.68865267  0.54967525  0.93078992     0.71700
O895        O  0.85463885  0.57154946  0.92641975    -0.73200
O896        O  0.90262672  0.57839492  0.95826780    -0.53800
C897        C  0.89059051  0.57622448  0.93409393     0.77700
O898        O  0.67349897  0.44464253  0.00513872    -0.58300
O899        O  0.64617782  0.48846100  0.99949380    -0.51500
C900        C  0.64180290  0.45123073  0.00324730     0.74300
Zr901      Zr  0.76158955  0.48744480  0.49835635     2.54700
O902        O  0.72930369  0.42606203  0.96847684    -0.78900
O903        O  0.74015665  0.43257060  0.53218601    -0.92300
Zr904      Zr  0.78953223  0.56376384  0.94453944     2.64700
O905        O  0.76634951  0.50317703  0.91481392    -0.97300
O906        O  0.81214965  0.61456473  0.90821055    -0.79300
O907        O  0.80891330  0.52501173  0.97326634    -0.82700
O908        O  0.73143964  0.51650137  0.97208334    -2.17400
O909        O  0.72451384  0.55473510  0.57217328    -0.66100
O910        O  0.67784434  0.55148595  0.54052307    -0.50600
C911        C  0.68817533  0.54910362  0.56453362     0.72700
O912        O  0.91020843  0.69803512  0.99572488    -0.59000
O913        O  0.93539866  0.65904440  0.50380635    -0.51000
C914        C  0.94187769  0.69736978  0.50347681     0.74500
O915        O  0.77519333  0.68453835  0.99267779    -0.70400
O916        O  0.70762404  0.62421466  0.99409416    -0.49100
C917        C  0.73316786  0.66527282  0.99290735     0.75900
O918        O  0.85775113  0.58304509  0.57455523    -0.65700
O919        O  0.90751478  0.58991004  0.54401519    -0.52900
C920        C  0.89405551  0.58749564  0.56790152     0.74300
Zr921      Zr  0.79372831  0.57447782  0.55398195     2.77500
O922        O  0.81311854  0.63357304  0.58432866    -0.96500
O923        O  0.77521966  0.52329273  0.58976614    -0.77300
Zr924      Zr  0.82927717  0.66044184  0.99422815     2.70100
O925        O  0.85058619  0.71704464  0.53738062    -0.78500
O926        O  0.85269646  0.70625109  0.95537581    -0.97600
Zr927      Zr  0.87411781  0.58667249  0.50116043     2.21500
Zr928      Zr  0.71270125  0.56018086  0.99701177     2.11100
O929        O  0.77204888  0.61363773  0.52744856    -2.46300
O930        O  0.85164164  0.62602376  0.52813395    -0.78300
O931        O  0.73815295  0.52354082  0.52632682    -0.70500
O932        O  0.84777211  0.61588566  0.97009513    -2.31500
O933        O  0.81594066  0.53537390  0.52772268    -2.27700
O934        O  0.77058990  0.60772867  0.96834587    -0.72300
H935        H  0.70725815  0.49566751  0.96168276     0.79700
H936        H  0.87181059  0.63403707  0.95868148     0.80800
H937        H  0.76076342  0.62727920  0.53846690     0.83000
H938        H  0.82497148  0.51975982  0.53877488     0.80600
H939        H  0.80303847  0.63494825  0.91349137     0.43700
H940        H  0.82558914  0.69858454  0.94597017     0.42600
H941        H  0.82372061  0.70647169  0.54776820     0.42300
H942        H  0.78854190  0.63847322  0.58373622     0.40300
H943        H  0.76234242  0.49510295  0.58087927     0.43400
H944        H  0.76730634  0.43969310  0.54134627     0.38200
H945        H  0.75453688  0.43710473  0.95652283     0.44300
H946        H  0.73516978  0.48379274  0.91853646     0.40700
H947        H  0.81111940  0.62112067  0.60199874     0.45600
H948        H  0.73195534  0.40598006  0.52229481     0.44300
H949        H  0.76718094  0.51495820  0.89708295     0.44500
H950        H  0.86316438  0.73540519  0.96235201     0.44800
O951        O  0.67097127  0.22531006  0.48957406    -0.74000
O952        O  0.64326500  0.15401923  0.49730473    -0.52900
C953        C  0.64365822  0.19445557  0.99940766     0.79700
O954        O  0.85376077  0.26904087  0.92415087    -0.58600
O955        O  0.90374172  0.31449569  0.95403996    -0.51700
C956        C  0.89051465  0.30135831  0.93033658     0.71700
O957        O  0.71752761  0.16535094  0.92787415    -0.73200
O958        O  0.66999985  0.12327567  0.95990929    -0.53800
C959        C  0.68042360  0.13560350  0.93587180     0.77700
O960        O  0.81086283  0.34927799  0.99799295    -0.58300
O961        O  0.87887098  0.35997921  0.99377284    -0.51500
C962        C  0.85216452  0.37368240  0.99552146     0.74300
Zr963      Zr  0.74884765  0.26932862  0.49441343     2.54700
O964        O  0.73509935  0.30418750  0.96300939    -0.78900
O965        O  0.72599057  0.29757304  0.53030139    -0.92300
Zr966      Zr  0.78807440  0.21530106  0.94491864     2.64700
O967        O  0.76992292  0.24417265  0.90696771    -0.97300
O968        O  0.80572065  0.17224026  0.91673910    -0.79300
O969        O  0.73261615  0.21148037  0.97185823    -0.82700
O970        O  0.81074934  0.27855163  0.96976260    -2.17400
O971        O  0.85017004  0.28863332  0.56892400    -0.66100
O972        O  0.89844888  0.32898505  0.53674483    -0.50600
C973        C  0.88545925  0.32102863  0.56093469     0.72700
O974        O  0.76740433  0.08604020  0.00032757    -0.59000
O975        O  0.70471553  0.08103315  0.50403844    -0.51000
C976        C  0.73036714  0.06613130  0.50441648     0.74500
O977        O  0.90505194  0.20548151  0.99677028    -0.70400
O978        O  0.93070440  0.27767717  0.99930748    -0.49100
C979        C  0.93618521  0.24530998  0.99800531     0.75900
O980        O  0.72479848  0.17176391  0.57322783    -0.65700
O981        O  0.67447824  0.12523199  0.54387757    -0.52900
C982        C  0.68783732  0.13965491  0.56733966     0.74300
Zr983      Zr  0.78879471  0.22561359  0.55165392     2.77500
O984        O  0.81761556  0.19710284  0.58382023    -0.96500
O985        O  0.76681371  0.25747090  0.58581900    -0.77300
Zr986      Zr  0.82429335  0.16401922  0.99951828     2.70100
O987        O  0.84776221  0.14324811  0.53956143    -0.78500
O988        O  0.84279915  0.12924856  0.96530882    -0.97600
Zr989      Zr  0.70936028  0.14997979  0.50071719     2.21500
Zr990      Zr  0.86880896  0.28751113  0.99711220     2.11100
O991        O  0.84620834  0.23279094  0.52550969    -2.46300
O992        O  0.76816534  0.16162126  0.52841720    -0.78300
O993        O  0.80683147  0.28356657  0.52270049    -0.70500
O994        O  0.76584817  0.15557887  0.97281019    -2.31500
O995        O  0.72958613  0.21357571  0.52514318    -2.27700
O996        O  0.84598837  0.22414583  0.97130146    -0.72300
H997        H  0.82014487  0.30271260  0.95805110     0.79700
H998        H  0.75465559  0.13005018  0.96213451     0.80800
H999        H  0.87052947  0.23969298  0.53679391     0.83000
H1000       H  0.70591598  0.21029818  0.53585769     0.80600
H1001       H  0.80041148  0.17849498  0.89860222     0.43700
H1002       H  0.86123317  0.15256540  0.95283729     0.42600
H1003       H  0.86860788  0.16963236  0.54914452     0.42300
H1004       H  0.81071818  0.20477920  0.60109920     0.40300
H1005       H  0.74655256  0.26413532  0.57688047     0.43400
H1006       H  0.71363090  0.31312224  0.52141679     0.38200
H1007       H  0.73419297  0.28808429  0.94705596     0.44300
H1008       H  0.78649800  0.27568084  0.90938641     0.40700
H1009       H  0.79836860  0.16557629  0.58267072     0.45600
H1010       H  0.75329943  0.32043230  0.53823778     0.44300
H1011       H  0.78375917  0.23896822  0.89172271     0.44500
H1012       H  0.86281290  0.12198461  0.97399254     0.44800
O1013       O  0.33022706  0.77831782  0.49016406    -0.74000
O1014       O  0.35649636  0.85026131  0.49202049    -0.52900
C1015       C  0.37080108  0.83474392  0.99701833     0.79700
O1016       O  0.14703273  0.71292501  0.93267302    -0.58600
O1017       O  0.10771613  0.67021122  0.96715335    -0.51700
C1018       C  0.11518281  0.67883521  0.94236055     0.71700
O1019       O  0.27133969  0.83284897  0.92411079    -0.73200
O1020       O  0.31941569  0.88481211  0.95201479    -0.53800
C1021       C  0.30606733  0.86832993  0.92896669     0.77700
O1022       O  0.21927757  0.66895364  0.01344051    -0.58300
O1023       O  0.14703832  0.64495478  0.01110530    -0.51500
C1024       C  0.17920312  0.63924693  0.01438727     0.74300
Zr1025     Zr  0.25412449  0.73605483  0.50088942     2.54700
O1026       O  0.28582808  0.71279396  0.96872349    -0.78900
O1027       O  0.28460931  0.71804315  0.53801901    -0.92300
Zr1028     Zr  0.21114101  0.77636820  0.94748691     2.64700
O1029       O  0.23487115  0.74259238  0.91563481    -0.97300
O1030       O  0.17994499  0.79932374  0.91327725    -0.79300
O1031       O  0.27475298  0.79644746  0.97192726    -0.82700
O1032       O  0.20265178  0.72258351  0.97742599    -2.17400
O1033       O  0.16592125  0.73207741  0.57947616    -0.66100
O1034       O  0.11378321  0.68317729  0.55187230    -0.50600
C1035       C  0.13044098  0.69717042  0.57488446     0.72700
O1036       O  0.21885113  0.90813030  0.99586660    -0.59000
O1037       O  0.29197881  0.92106699  0.49510257    -0.51000
C1038       C  0.26579234  0.93518768  0.49658362     0.74500
O1039       O  0.08811457  0.77519050  0.00134748    -0.70400
O1040       O  0.07777560  0.70821332  0.00804775    -0.49100
C1041       C  0.06367281  0.73401624  0.00529535     0.75900
O1042       O  0.28946220  0.84992686  0.56993062    -0.65700
O1043       O  0.33336447  0.88864762  0.53565078    -0.52900
C1044       C  0.32501533  0.87992494  0.56038638     0.74300
Zr1045     Zr  0.22162229  0.79141040  0.55528573     2.77500
O1046       O  0.19616471  0.82900700  0.58261961    -0.96500
O1047       O  0.25021583  0.77300266  0.59322463    -0.77300
Zr1048     Zr  0.16868227  0.82800988  0.99885851     2.70100
O1049       O  0.15282322  0.86341222  0.53875084    -0.78500
O1050       O  0.13981166  0.84786402  0.96174016    -0.97600
Zr1051     Zr  0.28969289  0.85350157  0.49620257     2.21500
Zr1052     Zr  0.14598385  0.71147692  0.00662002     2.11100
O1053       O  0.15862113  0.77521790  0.53186192    -2.46300
O1054       O  0.23532142  0.84754666  0.52613454    -0.78300
O1055       O  0.20125833  0.72734716  0.53186704    -0.70500
O1056       O  0.22644893  0.83917432  0.97043296    -2.31500
O1057       O  0.27632949  0.79790744  0.52638635    -2.27700
O1058       O  0.15395394  0.76482520  0.97570163    -0.72300
H1059       H  0.19524925  0.69650829  0.96813037     0.79700
H1060       H  0.23219786  0.86153989  0.95792821     0.80800
H1061       H  0.13627731  0.77029735  0.54433742     0.83000
H1062       H  0.30214886  0.80426192  0.53592889     0.80600
H1063       H  0.19823690  0.83099837  0.91285083     0.43700
H1064       H  0.12070000  0.82050126  0.95247933     0.42600
H1065       H  0.13030202  0.86836577  0.53141988     0.42300
H1066       H  0.20260685  0.82442795  0.60088184     0.40300
H1067       H  0.27180622  0.76683661  0.58572673     0.43400
H1068       H  0.28759669  0.69400880  0.53154867     0.38200
H1069       H  0.31127231  0.71252741  0.97582798     0.44300
H1070       H  0.21940469  0.71184294  0.92050294     0.40700
H1071       H  0.21676845  0.85981250  0.57917029     0.45600
H1072       H  0.26084527  0.70472472  0.55107963     0.44300
H1073       H  0.22150700  0.74352347  0.89879255     0.44500
H1074       H  0.11976571  0.85561993  0.96983941     0.44800
O1075       O  0.57515363  0.84487598  0.92517848    -0.74000
O1076       O  0.57558373  0.88976221  0.95683887    -0.52900
C1077       C  0.57461009  0.87822068  0.93261507     0.79700
O1078       O  0.46488202  0.66287727  0.00219473    -0.58600
O1079       O  0.51655036  0.64484194  0.99971596    -0.51700
C1080       C  0.47670504  0.63506938  0.00140684     0.71700
O1081       O  0.46282975  0.79627900  0.49573146    -0.73200
O1082       O  0.51575680  0.86666869  0.49968780    -0.53800
C1083       C  0.46838534  0.82018196  0.00512015     0.77700
O1084       O  0.58177125  0.72800388  0.92469995    -0.58300
O1085       O  0.58297890  0.68312992  0.95581883    -0.51500
C1086       C  0.58235393  0.69453433  0.93178738     0.74300
Zr1087     Zr  0.57992785  0.78699243  0.94469070     2.54700
O1088       O  0.52288264  0.75636785  0.91164852    -0.78900
O1089       O  0.63787495  0.81796142  0.91215296    -0.92300
Zr1090     Zr  0.49126410  0.74798296  0.49873169     2.64700
O1091       O  0.43789635  0.71184230  0.96702639    -0.97300
O1092       O  0.43892767  0.72070706  0.53462121    -0.79300
O1093       O  0.53316233  0.79763187  0.97228342    -0.82700
O1094       O  0.53639182  0.72683484  0.97189455    -2.17400
O1095       O  0.70628711  0.78864470  0.99472567    -0.66100
O1096       O  0.65225976  0.71812626  0.99584489    -0.50600
C1097       C  0.69248248  0.74766509  0.99469838     0.72700
O1098       O  0.58686061  0.85317593  0.57426206    -0.59000
O1099       O  0.58453096  0.89726899  0.54302068    -0.51000
C1100       C  0.58666424  0.88683284  0.56711365     0.74500
O1101       O  0.57754356  0.72872104  0.57354966    -0.70400
O1102       O  0.57693640  0.68336564  0.54217290    -0.49100
C1103       C  0.57697590  0.69477350  0.56627978     0.75900
O1104       O  0.70140893  0.91548448  0.99870308    -0.65700
O1105       O  0.65084000  0.93146078  0.50124085    -0.52900
C1106       C  0.69112235  0.94322699  0.50215863     0.74300
Zr1107     Zr  0.67449297  0.83652430  0.99653400     2.77500
O1108       O  0.72386822  0.86190720  0.53809644    -0.96500
O1109       O  0.72376312  0.86548981  0.95919598    -0.77300
Zr1110     Zr  0.57976626  0.79004623  0.55398113     2.70100
O1111       O  0.63307015  0.81232041  0.58909501    -0.78500
O1112       O  0.51855287  0.76253749  0.58405060    -0.97600
Zr1113     Zr  0.58282448  0.86463522  0.50005019     2.21500
Zr1114     Zr  0.58416971  0.71555041  0.99855095     2.11100
O1115       O  0.62551094  0.77642401  0.52759628    -2.46300
O1116       O  0.62737766  0.84990649  0.52781085    -0.78300
O1117       O  0.62793799  0.77560479  0.97034734    -0.70500
O1118       O  0.53546299  0.80542027  0.52735623    -2.31500
O1119       O  0.62552527  0.84751260  0.97084668    -2.27700
O1120       O  0.53309115  0.73108254  0.52689088    -0.72300
H1121       H  0.51832041  0.70200758  0.96113363     0.79700
H1122       H  0.51795029  0.81236890  0.53826031     0.80800
H1123       H  0.64233004  0.76904283  0.53884664     0.83000
H1124       H  0.64190330  0.87226698  0.95967504     0.80600
H1125       H  0.44753364  0.74571161  0.54621652     0.43700
H1126       H  0.49956349  0.73213020  0.57891520     0.42600
H1127       H  0.65945861  0.83732447  0.58174058     0.42300
H1128       H  0.72143832  0.83569759  0.54574104     0.40300
H1129       H  0.71879820  0.83993966  0.94923181     0.43400
H1130       H  0.65415032  0.84912987  0.91585536     0.38200
H1131       H  0.49791733  0.75578808  0.92022391     0.44300
H1132       H  0.44550700  0.69510765  0.95516958     0.40700
H1133       H  0.75286119  0.87720813  0.52979966     0.45600
H1134       H  0.62304639  0.81522826  0.89520876     0.44300
H1135       H  0.41118440  0.68998107  0.97605235     0.44500
H1136       H  0.53050977  0.76132150  0.60137534     0.44800
O1137       O  0.22593217  0.54834637  0.49684842    -0.74000
O1138       O  0.15325590  0.50310637  0.50205941    -0.52900
C1139       C  0.15792479  0.52717765  0.00495490     0.79700
O1140       O  0.26841443  0.43280272  0.92738217    -0.58600
O1141       O  0.31856211  0.44014850  0.95775900    -0.51700
C1142       C  0.30518197  0.43834113  0.93391799     0.71700
O1143       O  0.14130909  0.42008320  0.93028580    -0.73200
O1144       O  0.09617105  0.41795460  0.96263753    -0.53800
C1145       C  0.10655944  0.41775535  0.93830578     0.77700
O1146       O  0.32724948  0.55007469  0.00701423    -0.58300
O1147       O  0.35272211  0.50458903  0.00253815    -0.51500
C1148       C  0.35809656  0.54215735  0.00612434     0.74300
Zr1149     Zr  0.26847108  0.51425637  0.50209173     2.54700
O1150       O  0.27427811  0.56803504  0.96641790    -0.78900
O1151       O  0.29446955  0.56392981  0.53908277    -0.92300
Zr1152     Zr  0.20566446  0.42620391  0.94844802     2.64700
O1153       O  0.22648391  0.48123205  0.91479936    -0.97300
O1154       O  0.17860153  0.36776794  0.91673312    -0.79300
O1155       O  0.19033858  0.46993546  0.97535595    -0.82700
O1156       O  0.26619283  0.47625813  0.97364438    -2.17400
O1157       O  0.27643318  0.41931793  0.57279459    -0.66100
O1158       O  0.31908316  0.41586185  0.54074312    -0.50600
C1159       C  0.30893291  0.41715997  0.56498893     0.72700
O1160       O  0.08567082  0.30194759  0.00691162    -0.59000
O1161       O  0.07726017  0.37049178  0.50492375    -0.51000
C1162       C  0.06047523  0.32970084  0.50427040     0.74500
O1163       O  0.22089187  0.31137944  0.00109139    -0.70400
O1164       O  0.28896275  0.37104447  0.99962906    -0.49100
C1165       C  0.26294749  0.33025475  0.00004005     0.75900
O1166       O  0.16080817  0.42875662  0.57641943    -0.65700
O1167       O  0.11897821  0.43743729  0.54619756    -0.52900
C1168       C  0.12990321  0.43456049  0.57002688     0.74300
Zr1169     Zr  0.21647587  0.42209711  0.55503439     2.77500
O1170       O  0.18239785  0.35966359  0.58386183    -0.96500
O1171       O  0.24712070  0.47215370  0.59166150    -0.77300
Zr1172     Zr  0.16667855  0.33576413  0.00257468     2.70100
O1173       O  0.13085253  0.27900191  0.53409540    -0.78500
O1174       O  0.13939554  0.28513301  0.96611386    -0.97600
Zr1175     Zr  0.14786968  0.43331580  0.50301107     2.21500
Zr1176     Zr  0.28479430  0.43474297  0.00081849     2.11100
O1177       O  0.22431122  0.37509629  0.52665410    -2.46300
O1178       O  0.15427925  0.38185193  0.52883066    -0.78300
O1179       O  0.27773688  0.46581449  0.52840671    -0.70500
O1180       O  0.14823440  0.37833135  0.97624246    -2.31500
O1181       O  0.20934947  0.47359074  0.53053577    -2.27700
O1182       O  0.22461130  0.38448439  0.97456967    -0.72300
H1183       H  0.29000704  0.49552748  0.96241398     0.79700
H1184       H  0.12313637  0.35948382  0.96576488     0.80800
H1185       H  0.22939741  0.35594426  0.53714440     0.83000
H1186       H  0.20562109  0.49261798  0.54202600     0.80600
H1187       H  0.19216032  0.35112275  0.92197168     0.43700
H1188       H  0.16565203  0.28920297  0.95715480     0.42600
H1189       H  0.15571237  0.28498942  0.54542368     0.42300
H1190       H  0.18863644  0.37175070  0.60189841     0.40300
H1191       H  0.26191331  0.50082593  0.58328173     0.43400
H1192       H  0.31580311  0.59189228  0.53118506     0.38200
H1193       H  0.24892955  0.55718766  0.95458434     0.44300
H1194       H  0.25768296  0.50168377  0.91779804     0.40700
H1195       H  0.15092885  0.34760009  0.58157818     0.45600
H1196       H  0.31215959  0.55561656  0.54958290     0.44300
H1197       H  0.22530527  0.46674138  0.89803951     0.44500
H1198       H  0.12660389  0.25664753  0.97463177     0.44800
O1199       O  0.40766263  0.14355278  0.92466472    -0.74000
O1200       O  0.41026881  0.09983100  0.95606396    -0.52900
C1201       C  0.40852206  0.11029545  0.93192257     0.79700
O1202       O  0.53249694  0.32889959  0.99882956    -0.58600
O1203       O  0.48220695  0.34898985  0.99806612    -0.51700
C1204       C  0.52180524  0.35763567  0.99888646     0.71700
O1205       O  0.53522313  0.20310258  0.49877209    -0.73200
O1206       O  0.48224168  0.13250000  0.49932975    -0.53800
C1207       C  0.52302788  0.16793699  0.99793227     0.77700
O1208       O  0.40700769  0.26322636  0.92464635    -0.58300
O1209       O  0.41181072  0.31125237  0.95552962    -0.51500
C1210       C  0.40932442  0.29813112  0.93158205     0.74300
Zr1211     Zr  0.40837110  0.20406557  0.94446872     2.54700
O1212       O  0.46515919  0.23375457  0.91123999    -0.78900
O1213       O  0.34902479  0.17441343  0.91288127    -0.92300
Zr1214     Zr  0.50764230  0.25129915  0.50112755     2.64700
O1215       O  0.55179638  0.27813108  0.95977728    -0.97300
O1216       O  0.55385684  0.27011496  0.53983578    -0.79300
O1217       O  0.45632351  0.19216768  0.96987176    -0.82700
O1218       O  0.45623953  0.26500052  0.96975145    -2.17400
O1219       O  0.28896476  0.20760504  0.00070380    -0.66100
O1220       O  0.34418051  0.27752884  0.99884908    -0.50600
C1221       C  0.30359232  0.24850085  0.99992087     0.72700
O1222       O  0.40781766  0.14420689  0.57178076    -0.59000
O1223       O  0.41234602  0.10117494  0.54074941    -0.51000
C1224       C  0.40978381  0.11147512  0.56475742     0.74500
O1225       O  0.41350969  0.26757908  0.57058091    -0.70400
O1226       O  0.41972326  0.31496037  0.53879420    -0.49100
C1227       C  0.41649891  0.30251635  0.56294154     0.75900
O1228       O  0.28888122  0.08152745  0.00240026    -0.65700
O1229       O  0.34570841  0.06936543  0.49762997    -0.52900
C1230       C  0.30555312  0.05813093  0.49641710     0.74300
Zr1231     Zr  0.32015433  0.16021142  0.00036248     2.77500
O1232       O  0.26914679  0.13951167  0.52788153    -0.96500
O1233       O  0.26674271  0.13248916  0.96510678    -0.77300
Zr1234     Zr  0.41106586  0.20577355  0.55173949     2.70100
O1235       O  0.34822257  0.17603032  0.58063543    -0.78500
O1236       O  0.46193401  0.22878572  0.58832065    -0.97600
Zr1237     Zr  0.41509850  0.13492328  0.49817464     2.21500
Zr1238     Zr  0.41273747  0.27964793  0.99819703     2.11100
O1239       O  0.37049535  0.22294966  0.52296773    -2.46300
O1240       O  0.36684141  0.14830558  0.52322589    -0.78300
O1241       O  0.36453038  0.21877403  0.97197043    -0.70500
O1242       O  0.45894016  0.19238334  0.52741512    -2.31500
O1243       O  0.36425959  0.14563331  0.97243924    -2.27700
O1244       O  0.46265463  0.26625621  0.52723593    -0.72300
H1245       H  0.47366707  0.28915713  0.95835016     0.79700
H1246       H  0.47520949  0.18493456  0.53911471     0.80800
H1247       H  0.35285730  0.23072056  0.53308508     0.83000
H1248       H  0.34589167  0.12069406  0.96184026     0.80600
H1249       H  0.58362937  0.28402787  0.53268756     0.43700
H1250       H  0.48326026  0.25934968  0.58469289     0.42600
H1251       H  0.32936002  0.14615199  0.57447481     0.42300
H1252       H  0.27412678  0.16573377  0.53700347     0.40300
H1253       H  0.27436858  0.15778173  0.95396195     0.43400
H1254       H  0.33040814  0.14390669  0.91793533     0.38200
H1255       H  0.48758109  0.22833048  0.91818199     0.44300
H1256       H  0.54326810  0.29533162  0.94904888     0.40700
H1257       H  0.24204649  0.12946726  0.51783929     0.45600
H1258       H  0.36235148  0.17370120  0.89597501     0.44300
H1259       H  0.57990778  0.29954419  0.96763874     0.44500
H1260       H  0.44538349  0.22924143  0.60376228     0.44800
C1261       C  0.28676412  0.30657579  0.99922437    -0.15200
C1262       C  0.27191851  0.26399917  0.00042891    -0.30400
H1263       H  0.23450466  0.24341728  0.50612074     0.13800
H1264       H  0.23744337  0.24111471  0.00195697     0.14400
C1265       C  0.44045830  0.58920153  0.00187158    -0.12800
C1266       C  0.40125246  0.58085633  0.01032767    -0.30400
H1267       H  0.44462190  0.56415551  0.99339782     0.13800
H1268       H  0.44198252  0.55506159  0.51197357     0.14400
C1269       C  0.28878696  0.98303985  0.49496497    -0.15200
C1270       C  0.27365061  0.01033688  0.49669261    -0.30400
H1271       H  0.30971637  0.99588260  0.97748770     0.13800
H1272       H  0.23924286  0.99802665  0.49874288     0.14400
C1273       C  0.17235193  0.59651598  0.02011636    -0.15200
C1274       C  0.14592076  0.56051490  0.00655157    -0.30400
H1275       H  0.12437684  0.56138259  0.51423228     0.13800
H1276       H  0.12041815  0.55835795  0.99406071     0.14400
C1277       C  0.41743843  0.84749580  0.99613898    -0.15200
C1278       C  0.43017437  0.82438118  0.01013381    -0.30400
H1279       H  0.43947103  0.87223791  0.98256496     0.13800
H1280       H  0.44513328  0.87475123  0.50793037     0.14400
C1281       C  0.70702450  0.01815380  0.50558704    -0.15200
C1282       C  0.72246328  0.99114082  0.50298137    -0.30400
H1283       H  0.67229185  0.00375211  0.50792747     0.13800
H1284       H  0.75080495  0.00167252  0.00010858     0.14400
C1285       C  0.98248460  0.26582609  0.49973478    -0.15200
C1286       C  0.01237277  0.30659875  0.50625694    -0.30400
H1287       H  0.99310787  0.24481824  0.98083475     0.13800
H1288       H  0.00038953  0.32735649  0.51221852     0.14400
C1289       C  0.60154292  0.19339900  0.99931544    -0.15200
C1290       C  0.56007958  0.15962558  0.99847619    -0.30400
H1291       H  0.60616658  0.22537739  0.99967926     0.13800
H1292       H  0.55308289  0.12365518  0.50712911     0.14400
C1293       C  0.98856173  0.73259541  0.50405096    -0.15200
C1294       C  0.01692612  0.72552881  0.51722657    -0.30400
H1295       H  0.99785496  0.75253987  0.98935890     0.13800
H1296       H  0.00318576  0.69729976  0.52985082     0.14400
C1297       C  0.70938292  0.68924558  0.99188563    -0.15200
C1298       C  0.72428195  0.73208151  0.99368298    -0.30400
H1299       H  0.67003631  0.66509301  0.49841694     0.13800
H1300       H  0.75876483  0.75493660  0.99512823     0.14400
C1301       C  0.85584673  0.43890481  0.01211529    -0.15200
C1302       C  0.86843728  0.42062293  0.99379627    -0.30400
H1303       H  0.88943206  0.45047338  0.51566336     0.13800
H1304       H  0.88191327  0.43686497  0.97520850     0.14400
C1305       C  0.59883700  0.41110662  0.00576271    -0.15200
C1306       C  0.55886579  0.40337193  0.99950706    -0.30400
H1307       H  0.61289697  0.38336914  0.49778460     0.13800
H1308       H  0.55406033  0.42935412  0.99368508     0.14400
C1309       C  0.42985031  0.36697198  0.65512453    -0.17300
C1310       C  0.42229255  0.35375702  0.63280281     0.06800
C1311       C  0.41795689  0.34219659  0.60591812     0.08700
C1312       C  0.41664257  0.32867710  0.58404398    -0.18100
C1313       C  0.41053128  0.32373446  0.90978173    -0.17300
C1314       C  0.41362338  0.33645004  0.88746586     0.06800
C1315       C  0.42014240  0.34727855  0.86040708     0.08700
C1316       C  0.42944115  0.36064651  0.83814903    -0.18100
C1317       C  0.61650410  0.51938642  0.65623228    -0.17300
C1318       C  0.62996312  0.52526676  0.63396701     0.06800
C1319       C  0.64251400  0.53238115  0.60724204     0.08700
C1320       C  0.65802909  0.53942269  0.58548312    -0.18100
C1321       C  0.66013363  0.54142110  0.90907943    -0.17300
C1322       C  0.64478647  0.53301419  0.88726446     0.06800
C1323       C  0.63124759  0.52261618  0.86081785     0.08700
C1324       C  0.61654092  0.51396971  0.83884346    -0.18100
C1325       C  0.56103469  0.62681899  0.65825681    -0.17300
C1326       C  0.56939832  0.64159563  0.63626021     0.06800
C1327       C  0.57449285  0.65466686  0.60956839     0.08700
C1328       C  0.57629652  0.66872573  0.58773971    -0.18100
C1329       C  0.58094456  0.66829936  0.91025668    -0.17300
C1330       C  0.57673108  0.65277200  0.88864538     0.06800
C1331       C  0.56819032  0.63755124  0.86238317     0.08700
C1332       C  0.55762846  0.62174115  0.84073163    -0.18100
C1333       C  0.33532127  0.41782063  0.58622358    -0.17300
C1334       C  0.34788686  0.42295711  0.60869117     0.06800
C1335       C  0.35730881  0.43354932  0.63562873     0.08700
C1336       C  0.36911368  0.44630817  0.65776545    -0.18100
C1337       C  0.37184612  0.46649406  0.84045688    -0.17300
C1338       C  0.35848334  0.45887184  0.86281079     0.06800
C1339       C  0.34671005  0.45074922  0.88972101     0.08700
C1340       C  0.33266746  0.44446208  0.91190236    -0.18100
C1341       C  0.93395210  0.55914045  0.65981672    -0.17300
C1342       C  0.93175977  0.57172767  0.63816577     0.06800
C1343       C  0.92875188  0.58255352  0.61176334     0.08700
C1344       C  0.91931626  0.58767849  0.58979780    -0.18100
C1345       C  0.91777561  0.57866440  0.91286993    -0.17300
C1346       C  0.92740172  0.57672224  0.89041355     0.06800
C1347       C  0.92853009  0.56900733  0.86326862     0.08700
C1348       C  0.92826091  0.55705967  0.84109600    -0.18100
C1349       C  0.92129818  0.38217911  0.65425003    -0.17300
C1350       C  0.91903829  0.37165344  0.63146051     0.06800
C1351       C  0.91799149  0.36253048  0.60425632     0.08700
C1352       C  0.91032261  0.34938436  0.58189843    -0.18100
C1353       C  0.91643757  0.32428155  0.90792571    -0.17300
C1354       C  0.92460149  0.33586837  0.88525696     0.06800
C1355       C  0.92418473  0.34590260  0.85830657     0.08700
C1356       C  0.92254998  0.35859826  0.83656187    -0.18100
C1357       C  0.10792067  0.43922425  0.59220920    -0.17300
C1358       C  0.09893558  0.44379823  0.61444022     0.06800
C1359       C  0.09368682  0.45040018  0.64139096     0.08700
C1360       C  0.08744384  0.45790052  0.66362914    -0.18100
C1361       C  0.05771472  0.43216059  0.84606969    -0.17300
C1362       C  0.06180113  0.42310544  0.86834488     0.06800
C1363       C  0.06718111  0.41709235  0.89531007     0.08700
C1364       C  0.07888348  0.41558595  0.91734939    -0.18100
C1365       C  0.10968987  0.67292043  0.59816031    -0.17300
C1366       C  0.10283935  0.66077171  0.62073867     0.06800
C1367       C  0.10012971  0.64936963  0.64763065     0.08700
C1368       C  0.09486618  0.63448658  0.66952134    -0.18100
C1369       C  0.06657359  0.60838463  0.85183794    -0.17300
C1370       C  0.07109476  0.62063415  0.87436510     0.06800
C1371       C  0.07640984  0.63294241  0.90118182     0.08700
C1372       C  0.08785888  0.64874325  0.92275139    -0.18100
C1373       C  0.39139213  0.90825515  0.65186653    -0.17300
C1374       C  0.38099074  0.90599719  0.62905325     0.06800
C1375       C  0.37176266  0.90739902  0.60211003     0.08700
C1376       C  0.35711273  0.90231056  0.58015857    -0.18100
C1377       C  0.33102506  0.88915884  0.90598717    -0.17300
C1378       C  0.34350018  0.89526502  0.88350245     0.06800
C1379       C  0.35459486  0.89653952  0.85670861     0.08700
C1380       C  0.36892124  0.90111742  0.83471531    -0.18100
C1381       C  0.57258928  0.94550114  0.65782994    -0.17300
C1382       C  0.58098465  0.93756783  0.63622230     0.06800
C1383       C  0.58625616  0.92704983  0.61006247     0.08700
C1384       C  0.58780205  0.91321580  0.58864900    -0.18100
C1385       C  0.57305485  0.90357039  0.91125189    -0.17300
C1386       C  0.57137166  0.91718848  0.88976261     0.06800
C1387       C  0.56764150  0.92805328  0.86335402     0.08700
C1388       C  0.56140690  0.93691909  0.84140223    -0.18100
C1389       C  0.62744431  0.11510181  0.66161123    -0.17300
C1390       C  0.63984962  0.11909040  0.63917861     0.06800
C1391       C  0.64853178  0.11767811  0.61221018     0.08700
C1392       C  0.66040900  0.12104857  0.58969886    -0.18100
C1393       C  0.61148291  0.10262132  0.84430670    -0.17300
C1394       C  0.62276197  0.10822154  0.86696773     0.06800
C1395       C  0.63361195  0.11036769  0.89376479     0.08700
C1396       C  0.64917727  0.11649763  0.91540562    -0.18100
C1397       C  0.43552829  0.06754308  0.65670145    -0.17300
C1398       C  0.42482081  0.07145643  0.63478469     0.06800
C1399       C  0.41592560  0.07650689  0.60824705     0.08700
C1400       C  0.41126808  0.08681398  0.58641370    -0.18100
C1401       C  0.40806541  0.08427360  0.91040183    -0.17300
C1402       C  0.40957509  0.07145008  0.88865275     0.06800
C1403       C  0.41468478  0.06285874  0.86201677     0.08700
C1404       C  0.42325391  0.05663905  0.84000670    -0.18100
loop_ 
_geom_bond_atom_site_label_1 
_geom_bond_atom_site_label_2 
_geom_bond_distance 
_geom_bond_site_symmetry_2 
_ccdc_geom_bond_type 
O1          Zr13   2.474       .  S
O1            C3   1.292       .  A
O2          Zr39   2.384   1_545  S
O2            C3   1.275       .  A
C3          C702   1.436       .  S
O4          Zr16   2.487       .  S
O4            C6   1.293       .  A
O5          Zr40   2.368   1_565  S
O5            C6   1.272       .  A
C6          C671   1.431       .  S
O7          Zr16   2.465       .  S
O7            C9   1.289       .  A
O8          Zr39   2.370       .  S
O8            C9   1.272       .  A
C9          C678   1.427       .  S
O10         Zr13   2.478       .  S
O10          C12   1.293       .  A
O11         Zr40   2.389       .  S
O11          C12   1.276       .  A
C12         C695   1.435       .  S
Zr13         O14   2.434       .  S
Zr13         O15   2.435       .  S
Zr13         O19   2.288   1_545  S
Zr13         O20   2.373   1_545  S
Zr13         O43   2.387       .  S
Zr13         O45   2.384       .  S
O14          H57   0.990       .  S
O15          H56   0.990       .  S
O15          H60   0.990       .  S
Zr16         O17   2.437       .  S
Zr16         O18   2.433       .  S
Zr16         O19   2.287       .  S
Zr16         O46   2.284       .  S
Zr16         O20   2.366       .  S
Zr16         O44   2.387       .  S
O17          H58   0.990       .  S
O17          H61   0.990       .  S
O18          H51   0.990       .  S
O19         Zr39   2.262       .  S
O20         Zr40   2.380   1_565  S
O20          H47   0.965       .  S
O21         Zr33   2.469       .  S
O21          C23   1.290       .  A
O22         Zr40   2.365       .  S
O22          C23   1.272       .  A
C23         C687   1.424       .  S
O24         Zr36   2.482       .  S
O24          C26   1.293       .  A
O25         Zr39   2.387       .  S
O25          C26   1.275       .  A
C26         C686   1.442       .  S
O27         Zr36   2.477       .  S
O27          C29   1.292       .  A
O28         Zr40   2.392   1_565  S
O28          C29   1.277       .  A
C29         C679   1.439       .  S
O30         Zr33   2.463       .  S
O30          C32   1.290       .  A
O31         Zr39   2.371   1_545  S
O31          C32   1.273       .  A
C32         C691   1.424       .  S
Zr33         O34   2.436       .  S
Zr33         O35   2.435       .  S
Zr33         O42   2.284       .  S
Zr33         O41   2.379       .  S
Zr33         O45   2.385       .  S
Zr33         O43   2.385       .  S
O34          H54   0.990       .  S
O34          H59   0.990       .  S
O35          H55   0.990       .  S
Zr36         O37   2.435       .  S
Zr36         O38   2.434       .  S
Zr36         O42   2.277   1_565  S
Zr36         O46   2.288       .  S
Zr36         O41   2.379   1_565  S
Zr36         O44   2.385       .  S
O37          H53   0.990       .  S
O38          H52   0.990       .  S
O38          H62   0.990       .  S
Zr39         O42   2.257   1_565  S
Zr39         O44   2.379       .  S
Zr39         O45   2.376   1_565  S
Zr40         O46   2.269   1_545  S
Zr40         O41   2.378       .  S
Zr40         O43   2.377       .  S
O41          H49   0.966       .  S
O44          H48   0.966       .  S
O45          H50   0.966       .  S
O63         Zr75   2.481       .  S
O63          C65   1.293       .  A
O64        Zr101   2.375   1_455  S
O64          C65   1.274       .  A
C65         C667   1.436       .  S
O66         Zr78   2.486       .  S
O66          C68   1.292       .  A
O67        Zr102   2.381   1_655  S
O67          C68   1.274       .  A
C68         C639   1.437       .  S
O69         Zr78   2.486       .  S
O69          C71   1.293       .  A
O70        Zr101   2.380       .  S
O70          C71   1.273       .  A
C71         C646   1.439       .  S
O72         Zr75   2.476       .  S
O72          C74   1.291       .  A
O73        Zr102   2.373       .  S
O73          C74   1.273       .  A
C74         C666   1.431       .  S
Zr75         O76   2.434       .  S
Zr75         O77   2.435       .  S
Zr75         O81   2.277   1_455  S
Zr75        O105   2.291       .  S
Zr75         O82   2.381       .  S
Zr75        O107   2.378       .  S
O76         H119   0.990       .  S
O77         H118   0.990       .  S
O77         H122   0.990       .  S
Zr78         O79   2.439       .  S
Zr78         O80   2.435       .  S
Zr78         O81   2.275       .  S
Zr78        O108   2.292       .  S
Zr78         O82   2.381   1_655  S
Zr78        O106   2.390       .  S
O79         H120   0.990       .  S
O79         H123   0.990       .  S
O80         H113   0.990       .  S
O81        Zr101   2.262       .  S
O82        Zr102   2.387       .  S
O82         H109   0.965       .  S
O83         Zr95   2.482       .  S
O83          C85   1.293       .  A
O84        Zr102   2.385       .  S
O84          C85   1.275       .  A
C85         C658   1.436       .  S
O86         Zr98   2.472       .  S
O86          C88   1.290       .  A
O87        Zr101   2.375       .  S
O87          C88   1.272       .  A
C88         C654   1.431       .  S
O89         Zr98   2.488       .  S
O89          C91   1.293       .  A
O90        Zr102   2.382   1_655  S
O90          C91   1.274       .  A
C91         C647   1.439       .  S
O92         Zr95   2.472       .  S
O92          C94   1.291       .  A
O93        Zr101   2.378   1_455  S
O93          C94   1.274       .  A
C94         C659   1.432       .  S
Zr95         O96   2.435       .  S
Zr95         O97   2.435       .  S
Zr95        O104   2.287   1_455  S
Zr95        O105   2.287       .  S
Zr95        O103   2.377   1_455  S
Zr95        O107   2.384       .  S
O96         H116   0.990       .  S
O96         H121   0.990       .  S
O97         H117   0.990       .  S
Zr98         O99   2.435       .  S
Zr98        O100   2.434       .  S
Zr98        O104   2.285       .  S
Zr98        O108   2.288       .  S
Zr98        O103   2.370       .  S
Zr98        O106   2.389       .  S
O99         H115   0.990       .  S
O100        H114   0.990       .  S
O100        H124   0.990       .  S
Zr101       O104   2.265       .  S
Zr101       O106   2.382       .  S
Zr101       O107   2.384   1_655  S
Zr102       O105   2.273       .  S
Zr102       O108   2.272   1_455  S
Zr102       O103   2.382   1_455  S
O103        H111   0.965       .  S
O106        H110   0.966       .  S
O107        H112   0.966       .  S
O125       Zr137   2.476       .  S
O125        C127   1.291       .  A
O126       Zr163   2.383       .  S
O126        C127   1.275       .  A
C127        C630   1.435       .  S
O128       Zr140   2.476       .  S
O128        C130   1.292       .  A
O129       Zr164   2.367       .  S
O129        C130   1.272       .  A
C130        C634   1.430       .  S
O131       Zr140   2.486       .  S
O131        C133   1.294       .  A
O132       Zr163   2.383       .  S
O132        C133   1.275       .  A
C133        C635   1.438       .  S
O134       Zr137   2.483       .  S
O134        C136   1.293       .  A
O135       Zr164   2.380       .  S
O135        C136   1.274       .  A
C136        C623   1.439       .  S
Zr137       O138   2.434       .  S
Zr137       O139   2.438       .  S
Zr137       O143   2.290       .  S
Zr137       O167   2.282       .  S
Zr137       O144   2.384       .  S
Zr137       O169   2.378       .  S
O138        H181   0.990       .  S
O139        H180   0.990       .  S
O139        H184   0.990       .  S
Zr140       O141   2.435       .  S
Zr140       O142   2.434       .  S
Zr140       O143   2.285       .  S
Zr140       O170   2.287       .  S
Zr140       O144   2.384       .  S
Zr140       O168   2.377       .  S
O141        H182   0.990       .  S
O141        H185   0.990       .  S
O142        H175   0.990       .  S
O143       Zr163   2.270       .  S
O144       Zr164   2.379       .  S
O144        H171   0.966       .  S
O145       Zr157   2.468       .  S
O145        C147   1.290       .  A
O146       Zr164   2.364       .  S
O146        C147   1.271       .  A
C147        C615   1.424       .  S
O148       Zr160   2.473       .  S
O148        C150   1.291       .  A
O149       Zr163   2.382       .  S
O149        C150   1.275       .  A
C150        C614   1.433       .  S
O151       Zr160   2.471       .  S
O151        C153   1.290       .  A
O152       Zr164   2.386       .  S
O152        C153   1.275       .  A
C153        C607   1.435       .  S
O154       Zr157   2.470       .  S
O154        C156   1.290       .  A
O155       Zr163   2.375       .  S
O155        C156   1.273       .  A
C156        C622   1.429       .  S
Zr157       O158   2.435       .  S
Zr157       O159   2.435       .  S
Zr157       O166   2.289       .  S
Zr157       O167   2.282       .  S
Zr157       O165   2.382       .  S
Zr157       O169   2.378       .  S
O158        H178   0.990       .  S
O158        H183   0.990       .  S
O159        H179   0.990       .  S
Zr160       O161   2.434       .  S
Zr160       O162   2.436       .  S
Zr160       O166   2.289       .  S
Zr160       O170   2.286       .  S
Zr160       O165   2.381       .  S
Zr160       O168   2.371       .  S
O161        H177   0.990       .  S
O162        H176   0.990       .  S
O162        H186   0.990       .  S
Zr163       O166   2.270       .  S
Zr163       O168   2.378       .  S
Zr163       O169   2.381       .  S
Zr164       O167   2.264       .  S
Zr164       O170   2.264       .  S
Zr164       O165   2.378       .  S
O165        H173   0.966       .  S
O168        H172   0.965       .  S
O169        H174   0.966       .  S
O187       Zr199   2.427       .  S
O187        C891   1.284       .  A
O188       Zr225   2.486   1_554  S
O188        C891   1.297       .  A
C189        O889   1.285       .  A
C189        O890   1.298       .  A
C189        C599   1.501       .  S
O190       Zr202   2.398       .  S
O190        C192   1.277       .  A
O191       Zr226   2.454       .  S
O191        C192   1.291       .  A
C192        C619   1.428       .  S
O193       Zr202   2.398       .  S
O193        C195   1.278       .  A
O194       Zr927   2.467       .  S
O194        C195   1.293       .  A
C195        C643   1.436       .  S
O196       Zr901   2.417       .  S
O196        C198   1.284       .  A
O197       Zr226   2.467       .  S
O197        C198   1.293       .  A
C198        C603   1.481       .  S
Zr199       O898   2.428       .  S
Zr199       O201   2.437       .  S
Zr199       O902   2.434   1_554  S
Zr199       O229   2.364       .  S
Zr199       O231   2.366       .  S
Zr199       O907   2.368   1_554  S
Zr199       O908   2.362   1_554  S
O200       Zr901   2.434       .  S
O200        H243   0.990       .  S
O201        H242   0.990       .  S
O201        H246   0.990       .  S
Zr202       O203   2.437       .  S
Zr202       O204   2.435       .  S
Zr202       O206   2.366       .  S
Zr202       O205   2.369       .  S
Zr202       O230   2.357       .  S
Zr202       O232   2.365       .  S
O203        H244   0.990       .  S
O203        H247   0.990       .  S
O204        H237   0.990       .  S
O205       Zr901   2.364       .  S
O205       Zr927   2.377       .  S
O206       Zr226   2.386       .  S
O206       Zr901   2.359       .  S
O206        H233   0.966       .  S
O207       Zr219   2.391       .  S
O207        C209   1.277       .  A
O208       Zr928   2.442   1_554  S
O208        C209   1.288       .  A
C209        C618   1.422       .  S
O210       Zr222   2.507       .  S
O210        C914   1.301       .  A
O211       Zr225   2.423       .  S
O211        C212   1.290       .  A
C212        O912   1.301       .  A
C212        C591   1.510       .  S
O213       Zr222   2.525       .  S
O213        C215   1.303       .  A
O214       Zr226   2.432       .  S
O214        C215   1.290       .  A
C215        C595   1.510       .  S
O216       Zr219   2.404       .  S
O216        C218   1.279       .  A
O217       Zr225   2.459   1_554  S
O217        C218   1.292       .  A
C218        C642   1.434       .  S
Zr219       O220   2.435       .  S
Zr219       O221   2.433       .  S
Zr219       O227   2.361       .  S
Zr219       O228   2.356       .  S
Zr219       O231   2.364       .  S
Zr219       O229   2.367       .  S
O220        H240   0.990       .  S
O220        H245   0.990       .  S
O221        H241   0.990       .  S
Zr222       O224   2.434       .  S
Zr222       O925   2.435       .  S
Zr222       O232   2.383       .  S
Zr222       O230   2.389       .  S
Zr222       O930   2.391       .  S
Zr222       O929   2.385       .  S
O223       Zr924   2.434   1_554  S
O223        H239   0.990       .  S
O224        H238   0.990       .  S
O224        H248   0.990       .  S
Zr225       O896   2.451       .  S
Zr225       O228   2.401   1_556  S
Zr225       O231   2.382   1_556  S
Zr225       O907   2.384       .  S
Zr225       O932   2.405       .  S
Zr226       O910   2.451       .  S
Zr226       O232   2.397       .  S
Zr226       O929   2.400       .  S
Zr226       O931   2.382       .  S
O227       Zr924   2.382   1_554  S
O227       Zr928   2.403   1_554  S
O227        H235   0.966       .  S
O228       Zr924   2.389   1_554  S
O229       Zr928   2.384   1_554  S
O230       Zr927   2.408       .  S
O230        H234   0.966       .  S
O231        H236   0.966       .  S
O249       Zr261   2.443       .  S
O249        C953   1.289       .  A
O250       Zr287   2.481       .  S
O250        C953   1.295   1_554  A
C251        O951   1.285       .  A
C251        O952   1.292       .  A
C251        C587   1.483       .  S
O252       Zr264   2.397       .  S
O252        C254   1.277       .  A
O253       Zr288   2.460       .  S
O253        C254   1.292       .  A
C254        C651   1.431       .  S
O255       Zr264   2.397       .  S
O255        C257   1.278       .  A
O256       Zr989   2.439       .  S
O256        C257   1.288       .  A
C257        C694   1.422       .  S
O258       Zr963   2.430       .  S
O258        C260   1.285       .  A
O259       Zr288   2.491       .  S
O259        C260   1.297       .  A
C260        C600   1.492       .  S
Zr261       O960   2.441       .  S
Zr261       O263   2.436   1_556  S
Zr261       O964   2.434       .  S
Zr261       O291   2.365   1_556  S
Zr261       O293   2.365   1_556  S
Zr261       O969   2.362       .  S
Zr261       O970   2.372       .  S
O262       Zr963   2.434       .  S
O262        H305   0.990       .  S
O263        H304   0.990       .  S
O263        H308   0.990       .  S
Zr264       O265   2.438       .  S
Zr264       O266   2.434       .  S
Zr264       O268   2.366       .  S
Zr264       O267   2.362       .  S
Zr264       O292   2.358       .  S
Zr264       O294   2.359       .  S
O265        H306   0.990       .  S
O265        H309   0.990       .  S
O266        H299   0.990       .  S
O267       Zr963   2.362       .  S
O267       Zr989   2.383       .  S
O268       Zr288   2.387       .  S
O268       Zr963   2.366       .  S
O268        H295   0.966       .  S
O269       Zr281   2.395       .  S
O269        C271   1.277       .  A
O270       Zr990   2.462   1_554  S
O270        C271   1.292       .  A
C271        C650   1.434       .  S
O272       Zr284   2.502       .  S
O272        C976   1.299       .  A
O273       Zr287   2.442       .  S
O273        C274   1.292       .  A
C274        O974   1.299       .  A
C274        C579   1.502       .  S
O275       Zr284   2.489       .  S
O275        C277   1.297       .  A
O276       Zr288   2.434       .  S
O276        C277   1.293       .  A
C277       C1285   1.505       .  S
O278       Zr281   2.392       .  S
O278        C280   1.276       .  A
O279       Zr287   2.447       .  S
O279        C280   1.289       .  A
C280        C690   1.423       .  S
Zr281       O282   2.435       .  S
Zr281       O283   2.434       .  S
Zr281       O289   2.357       .  S
Zr281       O290   2.363       .  S
Zr281       O293   2.367       .  S
Zr281       O291   2.366       .  S
O282        H302   0.990       .  S
O282        H307   0.990       .  S
O283        H303   0.990       .  S
Zr284       O286   2.434       .  S
Zr284       O987   2.435       .  S
Zr284       O294   2.386       .  S
Zr284       O292   2.379       .  S
Zr284       O992   2.385       .  S
Zr284       O991   2.390       .  S
O285       Zr986   2.435   1_554  S
O285        H301   0.990       .  S
O286        H300   0.990       .  S
O286        H310   0.990       .  S
Zr287       O958   2.436   1_554  S
Zr287       O290   2.398       .  S
Zr287       O293   2.386       .  S
Zr287       O969   2.384   1_554  S
Zr287       O994   2.405   1_554  S
Zr288       O972   2.462       .  S
Zr288       O294   2.402       .  S
Zr288       O991   2.405       .  S
Zr288       O993   2.381       .  S
O289       Zr986   2.388   1_554  S
O289       Zr990   2.404   1_554  S
O289        H297   0.966       .  S
O290       Zr986   2.386   1_554  S
O291       Zr990   2.381   1_554  S
O292       Zr989   2.399       .  S
O292        H296   0.966       .  S
O293        H298   0.966       .  S
O311       Zr323   2.447       .  S
O311       C1015   1.290   1_554  A
O312       Zr349   2.454       .  S
O312       C1015   1.290       .  A
C313       O1013   1.282       .  A
C313       O1014   1.295       .  A
C313        C575   1.486       .  S
O314       Zr326   2.397       .  S
O314        C316   1.277       .  A
O315       Zr350   2.460       .  S
O315        C316   1.292       .  A
C316        C670   1.432       .  S
O317       Zr326   2.395       .  S
O317        C319   1.277       .  A
O318      Zr1051   2.452       .  S
O318        C319   1.291       .  A
C319        C675   1.428       .  S
O320      Zr1025   2.402       .  S
O320        C322   1.282       .  A
O321       Zr350   2.467       .  S
O321        C322   1.292       .  A
C322        C571   1.493       .  S
Zr323      O1022   2.423       .  S
Zr323       O325   2.437       .  S
Zr323      O1026   2.435   1_554  S
Zr323       O353   2.369       .  S
Zr323       O355   2.357       .  S
Zr323      O1031   2.361   1_554  S
Zr323      O1032   2.370   1_554  S
O324      Zr1025   2.434       .  S
O324        H367   0.990       .  S
O325        H366   0.990       .  S
O325        H370   0.990       .  S
Zr326       O327   2.438       .  S
Zr326       O328   2.435       .  S
Zr326       O330   2.363       .  S
Zr326       O329   2.366       .  S
Zr326       O354   2.360       .  S
Zr326       O356   2.361       .  S
O327        H368   0.990       .  S
O327        H371   0.990       .  S
O328        H361   0.990       .  S
O329      Zr1025   2.358       .  S
O329      Zr1051   2.375       .  S
O330       Zr350   2.381       .  S
O330      Zr1025   2.363       .  S
O330        H357   0.966       .  S
O331       Zr343   2.391       .  S
O331        C333   1.276       .  A
O332      Zr1052   2.461       .  S
O332        C333   1.292       .  A
C333        C663   1.431       .  S
O334       Zr346   2.511       .  S
O334       C1038   1.301       .  A
O335       Zr349   2.385       .  S
O335        C336   1.280       .  A
C336       O1036   1.303       .  A
C336        C567   1.485       .  S
O337       Zr346   2.520       .  S
O337        C339   1.302       .  A
O338       Zr350   2.403       .  S
O338        C339   1.284       .  A
C339       C1294   1.490       .  S
O340       Zr343   2.384       .  S
O340        C342   1.275       .  A
O341       Zr349   2.459   1_554  S
O341        C342   1.291       .  A
C342        C674   1.426       .  S
Zr343       O344   2.436       .  S
Zr343       O345   2.434       .  S
Zr343       O351   2.357       .  S
Zr343       O352   2.356       .  S
Zr343       O355   2.370       .  S
Zr343       O353   2.364       .  S
O344        H364   0.990       .  S
O344        H369   0.990       .  S
O345        H365   0.990       .  S
Zr346       O348   2.434       .  S
Zr346      O1049   2.434       .  S
Zr346       O356   2.387       .  S
Zr346       O354   2.391       .  S
Zr346      O1054   2.391       .  S
Zr346      O1053   2.386       .  S
O347      Zr1048   2.434   1_554  S
O347        H363   0.990       .  S
O348        H362   0.990       .  S
O348        H372   0.990       .  S
Zr349      O1020   2.450       .  S
Zr349       O352   2.400   1_556  S
Zr349       O355   2.376   1_556  S
Zr349      O1031   2.373       .  S
Zr349      O1056   2.403       .  S
Zr350      O1034   2.461       .  S
Zr350       O356   2.401       .  S
Zr350      O1053   2.402       .  S
Zr350      O1055   2.379       .  S
O351      Zr1048   2.388   1_554  S
O351      Zr1052   2.401       .  S
O351        H359   0.966       .  S
O352      Zr1048   2.390   1_554  S
O353      Zr1052   2.376       .  S
O354      Zr1051   2.408       .  S
O354        H358   0.966       .  S
O355        H360   0.965       .  S
O373       Zr385   2.399       .  S
O373        C375   1.278       .  A
O374      Zr1113   2.475       .  S
O374        C375   1.295       .  A
C375        C683   1.441       .  S
O376      Zr1090   2.427       .  S
O376        C378   1.285       .  A
O377       Zr412   2.493       .  S
O377        C378   1.297       .  A
C378        C563   1.493       .  S
O379       Zr388   2.412       .  S
O379       C1083   1.282       .  A
O380       Zr411   2.487   1_554  S
O380       C1083   1.297       .  A
C381       O1081   1.291       .  A
C381       O1082   1.291       .  A
C381        C576   1.499       .  S
O382       Zr385   2.404       .  S
O382        C384   1.279       .  A
O383       Zr412   2.454       .  S
O383        C384   1.291       .  A
C384        C627   1.432       .  S
Zr385       O386   2.434       .  S
Zr385       O387   2.436       .  S
Zr385       O391   2.367       .  S
Zr385       O392   2.362       .  S
Zr385       O415   2.365       .  S
Zr385       O417   2.364       .  S
O386        H429   0.990       .  S
O387        H428   0.990       .  S
O387        H432   0.990       .  S
Zr388      O1078   2.412       .  S
Zr388       O390   2.434       .  S
Zr388      O1091   2.435   1_554  S
Zr388       O416   2.362       .  S
Zr388       O418   2.366       .  S
Zr388      O1094   2.361   1_554  S
Zr388      O1093   2.368   1_554  S
O389      Zr1090   2.437       .  S
O389        H430   0.990       .  S
O389        H433   0.990       .  S
O390        H423   0.990       .  S
O391      Zr1090   2.364       .  S
O391      Zr1113   2.379       .  S
O392       Zr412   2.394       .  S
O392      Zr1090   2.376       .  S
O392        H419   0.966       .  S
O393       Zr405   2.512       .  S
O393        C395   1.302       .  A
O394       Zr412   2.447       .  S
O394        C395   1.293       .  A
C395        C596   1.519       .  S
O396       Zr408   2.407       .  S
O396        C398   1.280       .  A
O397       Zr411   2.461   1_554  S
O397        C398   1.293       .  A
C398        C682   1.437       .  S
O399       Zr408   2.402       .  S
O399        C401   1.278       .  A
O400      Zr1114   2.468   1_554  S
O400        C401   1.294       .  A
C401        C626   1.438       .  S
O402       Zr405   2.521       .  S
O402       C1106   1.304       .  A
O403       Zr411   2.423       .  S
O403        C404   1.289       .  A
C404       O1104   1.304       .  A
C404        C580   1.513   1_556  S
Zr405       O407   2.435       .  S
Zr405      O1108   2.435       .  S
Zr405       O417   2.383       .  S
Zr405       O415   2.386       .  S
Zr405      O1115   2.385       .  S
Zr405      O1116   2.379       .  S
O406      Zr1107   2.434   1_554  S
O406        H426   0.990       .  S
O406        H431   0.990       .  S
O407        H427   0.990       .  S
Zr408       O409   2.434       .  S
Zr408       O410   2.436       .  S
Zr408       O414   2.362       .  S
Zr408       O413   2.363       .  S
Zr408       O418   2.371       .  S
Zr408       O416   2.363       .  S
O409        H425   0.990       .  S
O410        H424   0.990       .  S
O410        H434   0.990       .  S
Zr411      O1076   2.468       .  S
Zr411       O414   2.403   1_556  S
Zr411       O416   2.385   1_556  S
Zr411      O1093   2.383       .  S
Zr411      O1119   2.405       .  S
Zr412      O1102   2.460       .  S
Zr412       O415   2.402       .  S
Zr412      O1115   2.403       .  S
Zr412      O1120   2.391       .  S
O413      Zr1107   2.380   1_554  S
O413      Zr1114   2.402   1_554  S
O413        H421   0.966       .  S
O414      Zr1107   2.385   1_554  S
O416        H420   0.966       .  S
O417      Zr1113   2.400       .  S
O417        H422   0.966       .  S
O418      Zr1114   2.383   1_554  S
O435       Zr447   2.423       .  S
O435       C1139   1.286       .  A
O436       Zr473   2.451       .  S
O436       C1139   1.289       .  A
C437       O1137   1.287       .  A
C437       O1138   1.288       .  A
C437        C572   1.475       .  S
O438       Zr450   2.402       .  S
O438        C440   1.278       .  A
O439       Zr474   2.467       .  S
O439        C440   1.293       .  A
C440        C638   1.436       .  S
O441       Zr450   2.403       .  S
O441        C443   1.279       .  A
O442      Zr1175   2.454       .  S
O442        C443   1.290       .  A
C443        C662   1.430       .  S
O444      Zr1149   2.426       .  S
O444        C446   1.287       .  A
O445       Zr474   2.487       .  S
O445        C446   1.297       .  A
C446        C564   1.507       .  S
Zr447      O1146   2.424       .  S
Zr447       O449   2.436       .  S
Zr447      O1150   2.435   1_554  S
Zr447       O477   2.360       .  S
Zr447       O479   2.361       .  S
Zr447      O1155   2.367   1_554  S
Zr447      O1156   2.360   1_554  S
O448      Zr1149   2.434       .  S
O448        H491   0.990       .  S
O449        H490   0.990       .  S
O449        H494   0.990       .  S
Zr450       O451   2.437       .  S
Zr450       O452   2.435       .  S
Zr450       O454   2.369       .  S
Zr450       O453   2.366       .  S
Zr450       O478   2.366       .  S
Zr450       O480   2.364       .  S
O451        H492   0.990       .  S
O451        H495   0.990       .  S
O452        H485   0.990       .  S
O453      Zr1149   2.363       .  S
O453      Zr1175   2.380       .  S
O454       Zr474   2.387       .  S
O454      Zr1149   2.363       .  S
O454        H481   0.966       .  S
O455       Zr467   2.394       .  S
O455        C457   1.277       .  A
O456      Zr1176   2.452       .  S
O456        C457   1.290       .  A
C457        C631   1.428       .  S
O458       Zr470   2.520       .  S
O458       C1162   1.302       .  A
O459       Zr473   2.396       .  S
O459        C460   1.282       .  A
C460       O1160   1.305       .  A
C460        C584   1.491       .  S
O461       Zr470   2.495       .  S
O461        C463   1.298       .  A
O462       Zr474   2.443       .  S
O462        C463   1.294       .  A
C463        C559   1.508       .  S
O464       Zr467   2.399       .  S
O464        C466   1.278       .  A
O465       Zr473   2.463       .  S
O465        C466   1.292       .  A
C466        C655   1.434       .  S
Zr467       O468   2.434       .  S
Zr467       O469   2.434       .  S
Zr467       O475   2.359       .  S
Zr467       O476   2.357       .  S
Zr467       O479   2.366       .  S
Zr467       O477   2.365       .  S
O468        H488   0.990       .  S
O468        H493   0.990       .  S
O469        H489   0.990       .  S
Zr470       O472   2.434       .  S
Zr470      O1173   2.435       .  S
Zr470       O480   2.393       .  S
Zr470       O478   2.376       .  S
Zr470      O1178   2.382       .  S
Zr470      O1177   2.388       .  S
O471      Zr1172   2.435       .  S
O471        H487   0.990       .  S
O472        H486   0.990       .  S
O472        H496   0.990       .  S
Zr473      O1144   2.459   1_554  S
Zr473       O476   2.397       .  S
Zr473       O479   2.381       .  S
Zr473      O1155   2.378   1_554  S
Zr473      O1180   2.400   1_554  S
Zr474      O1158   2.458       .  S
Zr474       O480   2.404       .  S
Zr474      O1177   2.407       .  S
Zr474      O1179   2.386       .  S
O475      Zr1172   2.387       .  S
O475      Zr1176   2.404       .  S
O475        H483   0.966       .  S
O476      Zr1172   2.386       .  S
O477      Zr1176   2.377       .  S
O478      Zr1175   2.399       .  S
O478        H482   0.966       .  S
O479        H484   0.966       .  S
O497       Zr509   2.402       .  S
O497        C499   1.278       .  A
O498      Zr1237   2.461       .  S
O498        C499   1.292       .  A
C499        C699   1.435       .  S
O500      Zr1214   2.432       .  S
O500        C502   1.288       .  A
O501       Zr536   2.453       .  S
O501        C502   1.289       .  A
C502        C604   1.498       .  S
O503       Zr512   2.425       .  S
O503       C1207   1.286       .  A
O504       Zr535   2.495       .  S
O504       C1207   1.299       .  A
C505       O1205   1.287       .  A
C505       O1206   1.293       .  A
C505        C588   1.497       .  S
O506       Zr509   2.399       .  S
O506        C508   1.278       .  A
O507       Zr536   2.455       .  S
O507        C508   1.291       .  A
C508        C611   1.432       .  S
Zr509       O510   2.435       .  S
Zr509       O511   2.436       .  S
Zr509       O515   2.366       .  S
Zr509       O516   2.369       .  S
Zr509       O539   2.361       .  S
Zr509       O541   2.364       .  S
O510        H553   0.990       .  S
O511        H552   0.990       .  S
O511        H556   0.990       .  S
Zr512      O1202   2.424       .  S
Zr512       O514   2.434   1_556  S
Zr512      O1215   2.435       .  S
Zr512       O540   2.363   1_556  S
Zr512       O542   2.366   1_556  S
Zr512      O1218   2.363       .  S
Zr512      O1217   2.368       .  S
O513      Zr1214   2.437       .  S
O513        H554   0.990       .  S
O513        H557   0.990       .  S
O514        H547   0.990       .  S
O515      Zr1214   2.371       .  S
O515      Zr1237   2.380       .  S
O516       Zr536   2.381       .  S
O516      Zr1214   2.365       .  S
O516        H543   0.966       .  S
O517       Zr529   2.535       .  S
O517        C519   1.305       .  A
O518       Zr536   2.389       .  S
O518        C519   1.281       .  A
C519        C560   1.495       .  S
O520       Zr532   2.407       .  S
O520        C522   1.280       .  A
O521       Zr535   2.458   1_554  S
O521        C522   1.292       .  A
C522        C698   1.434       .  S
O523       Zr532   2.409       .  S
O523        C525   1.280       .  A
O524      Zr1238   2.452   1_554  S
O524        C525   1.291       .  A
C525        C610   1.433       .  S
O526       Zr529   2.514       .  S
O526       C1230   1.302       .  A
O527       Zr535   2.439       .  S
O527        C528   1.293   1_556  A
C528       O1228   1.295       .  A
C528        C568   1.498       .  S
Zr529       O531   2.434       .  S
Zr529      O1232   2.434       .  S
Zr529       O541   2.390       .  S
Zr529       O539   2.380       .  S
Zr529      O1239   2.381       .  S
Zr529      O1240   2.389       .  S
O530      Zr1231   2.436       .  S
O530        H550   0.990       .  S
O530        H555   0.990       .  S
O531        H551   0.990       .  S
Zr532       O533   2.435       .  S
Zr532       O534   2.435       .  S
Zr532       O538   2.364       .  S
Zr532       O537   2.364       .  S
Zr532       O542   2.365       .  S
Zr532       O540   2.365       .  S
O533        H549   0.990       .  S
O534        H548   0.990       .  S
O534        H558   0.990       .  S
Zr535      O1200   2.467       .  S
Zr535       O538   2.403   1_556  S
Zr535       O540   2.386   1_556  S
Zr535      O1217   2.382       .  S
Zr535      O1243   2.402       .  S
Zr536      O1226   2.453       .  S
Zr536       O539   2.391       .  S
Zr536      O1239   2.400       .  S
Zr536      O1244   2.379       .  S
O537      Zr1231   2.377       .  S
O537      Zr1238   2.402   1_554  S
O537        H545   0.966       .  S
O538      Zr1231   2.384       .  S
O540        H544   0.966       .  S
O541      Zr1237   2.403       .  S
O541        H546   0.966       .  S
O542      Zr1238   2.384   1_554  S
C559        C560   1.351       .  D
C559       H1263   1.085       .  S
C560        H562   1.088       .  S
H561       C1261   1.087       .  S
C563        C564   1.356       .  D
C563        H565   1.088       .  S
C564       H1268   1.085       .  S
H566       C1266   1.088       .  S
C567        C568   1.347   1_566  D
C567       H1271   1.089       .  S
C568        H570   1.086   1_545  S
H569       C1269   1.087       .  S
C571        C572   1.354       .  D
C571       H1275   1.085       .  S
C572        H574   1.088       .  S
H573       C1273   1.089       .  S
C575        C576   1.349       .  D
C575        H577   1.088       .  S
C576       H1280   1.086       .  S
H578       C1278   1.088       .  S
C579        C580   1.361   1_545  D
C579        H581   1.087       .  S
C580       H1284   1.086   1_565  S
H582       C1282   1.085   1_545  S
C583        C979   1.500       .  S
C583        C584   1.351   1_656  D
C583       H1287   1.086       .  S
C584        H586   1.088   1_455  S
H585       C1285   1.086       .  S
C587        C588   1.352       .  D
C587        H589   1.088       .  S
C588       H1292   1.085       .  S
H590       C1290   1.085       .  S
C591        C592   1.356   1_656  D
C591       H1295   1.085       .  S
C592       C1041   1.497       .  S
C592        H594   1.088       .  S
H593       C1293   1.085       .  S
C595        C596   1.361       .  D
C595       H1299   1.087       .  S
C596        H598   1.086       .  S
H597       C1297   1.087       .  S
C599        C600   1.354       .  D
C599       H1303   1.086       .  S
C600        H602   1.088       .  S
H601       C1301   1.088       .  S
C603        C604   1.351       .  D
C603       H1307   1.087       .  S
C604        H606   1.086       .  S
H605       C1305   1.088       .  S
C607        C608   1.207       .  T
C608        C609   1.414       .  S
C609        C610   1.206       .  T
C611        C612   1.206       .  T
C612        C613   1.414       .  S
C613        C614   1.206       .  T
C615        C616   1.202       .  T
C616        C617   1.406       .  S
C617        C618   1.201       .  T
C619        C620   1.204       .  T
C620        C621   1.411       .  S
C621        C622   1.205       .  T
C623        C624   1.210       .  T
C624        C625   1.419       .  S
C625        C626   1.210       .  T
C627        C628   1.206       .  T
C628        C629   1.413       .  S
C629        C630   1.207       .  T
C631        C632   1.204       .  T
C632        C633   1.412       .  S
C633        C634   1.205       .  T
C635        C636   1.210       .  T
C636        C637   1.419       .  S
C637        C638   1.209       .  T
C639        C640   1.208       .  T
C640        C641   1.417       .  S
C641        C642   1.208       .  T
C643        C644   1.209       .  T
C644        C645   1.419       .  S
C645        C646   1.210       .  T
C647        C648   1.209       .  T
C648        C649   1.418       .  S
C649        C650   1.208       .  T
C651        C652   1.206       .  T
C652        C653   1.413       .  S
C653        C654   1.206       .  T
C655        C656   1.208       .  T
C656        C657   1.417       .  S
C657        C658   1.208       .  T
C659        C660   1.205       .  T
C660        C661   1.411       .  S
C661        C662   1.205       .  T
C663        C664   1.206       .  T
C664        C665   1.414       .  S
C665        C666   1.206       .  T
C667        C668   1.208       .  T
C668        C669   1.416       .  S
C669        C670   1.207       .  T
C671        C672   1.206       .  T
C672        C673   1.413       .  S
C673        C674   1.205       .  T
C675        C676   1.204       .  T
C676        C677   1.409       .  S
C677        C678   1.203       .  T
C679        C680   1.209       .  T
C680        C681   1.417       .  S
C681        C682   1.208       .  T
C683        C684   1.211       .  T
C684        C685   1.422       .  S
C685        C686   1.212       .  T
C687        C688   1.202       .  T
C688        C689   1.407       .  S
C689        C690   1.202       .  T
C691        C692   1.202       .  T
C692        C693   1.406       .  S
C693        C694   1.201       .  T
C695        C696   1.207       .  T
C696        C697   1.415       .  S
C697        C698   1.207       .  T
C699        C700   1.208       .  T
C700        C701   1.416       .  S
C701        C702   1.208       .  T
O703       Zr715   2.482       .  S
O703        C705   1.293       .  A
O704       Zr741   2.387       .  S
O704        C705   1.275       .  A
C705       C1404   1.442       .  S
O706       Zr718   2.488       .  S
O706        C708   1.293       .  A
O707       Zr742   2.364   1_565  S
O707        C708   1.271       .  A
C708       C1373   1.432       .  S
O709       Zr718   2.475       .  S
O709        C711   1.291       .  A
O710       Zr741   2.366   1_565  S
O710        C711   1.272       .  A
C711       C1380   1.429       .  S
O712       Zr715   2.479       .  S
O712        C714   1.293       .  A
O713       Zr742   2.392       .  S
O713        C714   1.277       .  A
C714       C1397   1.439       .  S
Zr715       O716   2.434       .  S
Zr715       O717   2.436       .  S
Zr715       O721   2.283   1_545  S
Zr715       O745   2.291       .  S
Zr715       O722   2.380   1_545  S
Zr715       O747   2.383       .  S
O716        H759   0.990       .  S
O717        H758   0.990       .  S
O717        H762   0.990       .  S
Zr718       O719   2.437       .  S
Zr718       O720   2.434       .  S
Zr718       O721   2.285       .  S
Zr718       O748   2.284       .  S
Zr718       O722   2.374       .  S
Zr718       O746   2.384       .  S
O719        H760   0.990       .  S
O719        H763   0.990       .  S
O720        H753   0.990       .  S
O721       Zr741   2.266   1_565  S
O722       Zr742   2.383   1_565  S
O722        H749   0.965       .  S
O723       Zr735   2.479       .  S
O723        C725   1.291       .  A
O724       Zr742   2.363       .  S
O724        C725   1.271       .  A
C725       C1389   1.427       .  S
O726       Zr738   2.483       .  S
O726        C728   1.293       .  A
O727       Zr741   2.391   1_565  S
O727        C728   1.276       .  A
C728       C1388   1.444       .  S
O729       Zr738   2.481       .  S
O729        C731   1.293       .  A
O730       Zr742   2.395   1_565  S
O730        C731   1.277       .  A
C731       C1381   1.443       .  S
O732       Zr735   2.468       .  S
O732        C734   1.290       .  A
O733       Zr741   2.367       .  S
O733        C734   1.272       .  A
C734       C1393   1.425       .  S
Zr735       O736   2.437       .  S
Zr735       O737   2.435       .  S
Zr735       O744   2.290       .  S
Zr735       O745   2.285       .  S
Zr735       O743   2.379       .  S
Zr735       O747   2.382       .  S
O736        H756   0.990       .  S
O736        H761   0.990       .  S
O737        H757   0.990       .  S
Zr738       O739   2.435       .  S
Zr738       O740   2.435       .  S
Zr738       O744   2.285   1_565  S
Zr738       O748   2.289       .  S
Zr738       O743   2.379   1_565  S
Zr738       O746   2.385       .  S
O739        H755   0.990   1_565  S
O740        H754   0.990       .  S
O740        H764   0.990       .  S
Zr741       O744   2.266       .  S
Zr741       O746   2.378   1_545  S
Zr741       O747   2.380       .  S
Zr742       O745   2.271       .  S
Zr742       O748   2.267   1_545  S
Zr742       O743   2.380       .  S
O743        H751   0.966       .  S
O746        H750   0.966       .  S
O747        H752   0.966       .  S
O765       Zr777   2.482       .  S
O765        C767   1.293       .  A
O766       Zr803   2.374   1_455  S
O766        C767   1.273       .  A
C767       C1369   1.435       .  S
O768       Zr780   2.484       .  S
O768        C770   1.292       .  A
O769       Zr804   2.382   1_655  S
O769        C770   1.274       .  A
C770       C1341   1.437       .  S
O771       Zr780   2.469       .  S
O771        C773   1.289       .  A
O772       Zr803   2.376       .  S
O772        C773   1.273       .  A
C773       C1348   1.430       .  S
O774       Zr777   2.481       .  S
O774        C776   1.292       .  A
O775       Zr804   2.376       .  S
O775        C776   1.274       .  A
C776       C1368   1.433       .  S
Zr777       O778   2.434       .  S
Zr777       O779   2.434       .  S
Zr777       O783   2.282   1_455  S
Zr777       O807   2.289       .  S
Zr777       O784   2.379       .  S
Zr777       O809   2.381       .  S
O778        H821   0.990       .  S
O779        H820   0.990       .  S
O779        H824   0.990       .  S
Zr780       O781   2.439       .  S
Zr780       O782   2.435       .  S
Zr780       O783   2.281       .  S
Zr780       O810   2.289       .  S
Zr780       O784   2.373   1_655  S
Zr780       O808   2.389       .  S
O781        H822   0.990       .  S
O781        H825   0.990       .  S
O782        H815   0.990       .  S
O783       Zr803   2.262       .  S
O784       Zr804   2.382       .  S
O784        H811   0.965       .  S
O785       Zr797   2.485       .  S
O785        C787   1.293       .  A
O786       Zr804   2.381       .  S
O786        C787   1.274       .  A
C787       C1360   1.438       .  S
O788       Zr800   2.486       .  S
O788        C790   1.292       .  A
O789       Zr803   2.373       .  S
O789        C790   1.271       .  A
C790       C1356   1.437       .  S
O791       Zr800   2.486       .  S
O791        C793   1.293       .  A
O792       Zr804   2.373   1_655  S
O792        C793   1.273       .  A
C793       C1349   1.435       .  S
O794       Zr797   2.477       .  S
O794        C796   1.292       .  A
O795       Zr803   2.381   1_455  S
O795        C796   1.275       .  A
C796       C1361   1.435       .  S
Zr797       O798   2.437       .  S
Zr797       O799   2.435       .  S
Zr797       O806   2.281   1_455  S
Zr797       O807   2.290       .  S
Zr797       O805   2.378   1_455  S
Zr797       O809   2.386       .  S
O798        H818   0.990       .  S
O798        H823   0.990       .  S
O799        H819   0.990       .  S
Zr800       O801   2.435       .  S
Zr800       O802   2.435       .  S
Zr800       O806   2.276       .  S
Zr800       O810   2.293       .  S
Zr800       O805   2.378       .  S
Zr800       O808   2.389       .  S
O801        H817   0.990       .  S
O802        H816   0.990       .  S
O802        H826   0.990       .  S
Zr803       O806   2.262       .  S
Zr803       O808   2.382       .  S
Zr803       O809   2.383   1_655  S
Zr804       O807   2.271       .  S
Zr804       O810   2.272   1_455  S
Zr804       O805   2.382   1_455  S
O805        H813   0.965       .  S
O808        H812   0.966       .  S
O809        H814   0.966       .  S
O827       Zr839   2.471       .  S
O827        C829   1.291       .  A
O828       Zr865   2.393       .  S
O828        C829   1.277       .  A
C829       C1332   1.437       .  S
O830       Zr842   2.481       .  S
O830        C832   1.292       .  A
O831       Zr866   2.369       .  S
O831        C832   1.271       .  A
C832       C1336   1.432       .  S
O833       Zr842   2.486       .  S
O833        C835   1.293       .  A
O834       Zr865   2.373       .  S
O834        C835   1.273       .  A
C835       C1337   1.435       .  S
O836       Zr839   2.473       .  S
O836        C838   1.291       .  A
O837       Zr866   2.380       .  S
O837        C838   1.274       .  A
C838       C1325   1.436       .  S
Zr839       O840   2.435       .  S
Zr839       O841   2.436       .  S
Zr839       O845   2.292       .  S
Zr839       O869   2.282       .  S
Zr839       O846   2.384       .  S
Zr839       O871   2.378       .  S
O840        H883   0.990       .  S
O841        H882   0.990       .  S
O841        H886   0.990       .  S
Zr842       O843   2.435       .  S
Zr842       O844   2.436       .  S
Zr842       O845   2.291       .  S
Zr842       O872   2.280       .  S
Zr842       O846   2.384       .  S
Zr842       O870   2.374       .  S
O843        H884   0.990       .  S
O843        H887   0.990       .  S
O844        H877   0.990       .  S
O845       Zr865   2.273       .  S
O846       Zr866   2.380       .  S
O846        H873   0.966       .  S
O847       Zr859   2.469       .  S
O847        C849   1.290       .  A
O848       Zr866   2.374       .  S
O848        C849   1.273       .  A
C849       C1317   1.430       .  S
O850       Zr862   2.475       .  S
O850        C852   1.292       .  A
O851       Zr865   2.382       .  S
O851        C852   1.275       .  A
C852       C1316   1.434       .  S
O853       Zr862   2.474       .  S
O853        C855   1.291       .  A
O854       Zr866   2.379       .  S
O854        C855   1.274       .  A
C855       C1309   1.433       .  S
O856       Zr859   2.470       .  S
O856        C858   1.290       .  A
O857       Zr865   2.379       .  S
O857        C858   1.274       .  A
C858       C1324   1.431       .  S
Zr859       O860   2.434       .  S
Zr859       O861   2.434       .  S
Zr859       O868   2.290       .  S
Zr859       O869   2.284       .  S
Zr859       O867   2.382       .  S
Zr859       O871   2.376       .  S
O860        H880   0.990       .  S
O860        H885   0.990       .  S
O861        H881   0.990       .  S
Zr862       O863   2.434       .  S
Zr862       O864   2.438       .  S
Zr862       O868   2.291       .  S
Zr862       O872   2.281       .  S
Zr862       O867   2.384       .  S
Zr862       O870   2.377       .  S
O863        H879   0.989       .  S
O864        H878   0.990       .  S
O864        H888   0.990       .  S
Zr865       O868   2.273       .  S
Zr865       O870   2.383       .  S
Zr865       O871   2.377       .  S
Zr866       O869   2.259       .  S
Zr866       O872   2.268       .  S
Zr866       O867   2.382       .  S
O867        H875   0.966       .  S
O870        H874   0.965       .  S
O871        H876   0.965       .  S
O889       Zr901   2.426       .  S
O890       Zr927   2.491       .  S
C891       C1301   1.488       .  S
O892       Zr904   2.403       .  S
O892        C894   1.278       .  A
O893       Zr928   2.450       .  S
O893        C894   1.290       .  A
C894       C1321   1.430       .  S
O895       Zr904   2.398       .  S
O895        C897   1.278       .  A
O896        C897   1.290       .  A
C897       C1345   1.428       .  S
O898        C900   1.286       .  A
O899       Zr928   2.476       .  S
O899        C900   1.294   1_556  A
C900       C1305   1.489       .  S
Zr901       O903   2.436       .  S
Zr901       O931   2.365       .  S
Zr901       O933   2.363       .  S
O902        H945   0.990       .  S
O903        H944   0.990       .  S
O903        H948   0.990       .  S
Zr904       O905   2.437       .  S
Zr904       O906   2.434       .  S
Zr904       O908   2.363       .  S
Zr904       O907   2.369       .  S
Zr904       O932   2.364       .  S
Zr904       O934   2.368       .  S
O905        H946   0.990       .  S
O905        H949   0.990       .  S
O906        H939   0.990       .  S
O908       Zr928   2.385       .  S
O908        H935   0.966       .  S
O909       Zr921   2.398       .  S
O909        C911   1.278       .  A
O910        C911   1.290       .  A
C911       C1320   1.429       .  S
O912       Zr924   2.506       .  S
O913       Zr927   2.417       .  S
O913        C914   1.289       .  A
C914       C1293   1.502       .  S
O915       Zr924   2.517       .  S
O915        C917   1.301       .  A
O916       Zr928   2.432       .  S
O916        C917   1.291       .  A
C917       C1297   1.506       .  S
O918       Zr921   2.403       .  S
O918        C920   1.279       .  A
O919       Zr927   2.459       .  S
O919        C920   1.292       .  A
C920       C1344   1.434       .  S
Zr921       O922   2.436       .  S
Zr921       O923   2.434       .  S
Zr921       O929   2.365       .  S
Zr921       O930   2.358       .  S
Zr921       O933   2.369       .  S
Zr921       O931   2.366       .  S
O922        H942   0.990       .  S
O922        H947   0.990       .  S
O923        H943   0.990       .  S
Zr924       O926   2.434       .  S
Zr924       O934   2.388       .  S
Zr924       O932   2.384       .  S
O925        H941   0.990       .  S
O926        H940   0.990       .  S
O926        H950   0.990       .  S
Zr927       O930   2.403       .  S
Zr927       O933   2.380       .  S
Zr928       O934   2.397       .  S
O929        H937   0.966       .  S
O932        H936   0.966       .  S
O933        H938   0.966       .  S
O951       Zr963   2.424       .  S
O952       Zr989   2.467       .  S
C953       C1289   1.499       .  S
O954       Zr966   2.402       .  S
O954        C956   1.278       .  A
O955       Zr990   2.460       .  S
O955        C956   1.292       .  A
C956       C1353   1.435       .  S
O957       Zr966   2.400       .  S
O957        C959   1.278       .  A
O958        C959   1.287       .  A
C959       C1396   1.423       .  S
O960        C962   1.288       .  A
O961       Zr990   2.474       .  S
O961        C962   1.295       .  A
C962       C1302   1.495       .  S
Zr963       O965   2.434       .  S
Zr963       O993   2.363       .  S
Zr963       O995   2.360       .  S
O964       H1007   0.990       .  S
O965       H1006   0.990       .  S
O965       H1010   0.990       .  S
Zr966       O967   2.438       .  S
Zr966       O968   2.435       .  S
Zr966       O970   2.370       .  S
Zr966       O969   2.366       .  S
Zr966       O994   2.360       .  S
Zr966       O996   2.359       .  S
O967       H1008   0.990       .  S
O967       H1011   0.990       .  S
O968       H1001   0.990       .  S
O970       Zr990   2.390       .  S
O970        H997   0.966       .  S
O971       Zr983   2.387       .  S
O971        C973   1.276       .  A
O972        C973   1.292       .  A
C973       C1352   1.431       .  S
O974       Zr986   2.502   1_554  S
O975       Zr989   2.431       .  S
O975        C976   1.290       .  A
C976       C1281   1.498       .  S
O977       Zr986   2.500       .  S
O977        C979   1.299       .  A
O978       Zr990   2.437       .  S
O978        C979   1.292       .  A
O980       Zr983   2.388       .  S
O980        C982   1.275       .  A
O981       Zr989   2.454       .  S
O981        C982   1.291       .  A
C982       C1392   1.426       .  S
Zr983       O984   2.434       .  S
Zr983       O985   2.434       .  S
Zr983       O991   2.357       .  S
Zr983       O992   2.362       .  S
Zr983       O995   2.366       .  S
Zr983       O993   2.368       .  S
O984       H1004   0.990       .  S
O984       H1009   0.990       .  S
O985       H1005   0.990       .  S
Zr986       O988   2.435       .  S
Zr986       O996   2.383       .  S
Zr986       O994   2.388       .  S
O987       H1003   0.990       .  S
O988       H1002   0.990       .  S
O988       H1012   0.990       .  S
Zr989       O992   2.393       .  S
Zr989       O995   2.384       .  S
Zr990       O996   2.399       .  S
O991        H999   0.966       .  S
O994        H998   0.966       .  S
O995       H1000   0.966       .  S
O1013     Zr1025   2.417       .  S
O1014     Zr1051   2.480       .  S
C1015      C1277   1.497       .  S
O1016     Zr1028   2.396       .  S
O1016      C1018   1.277       .  A
O1017     Zr1052   2.457   1_556  S
O1017      C1018   1.291       .  A
C1018      C1372   1.432       .  S
O1019     Zr1028   2.397       .  S
O1019      C1021   1.277       .  A
O1020      C1021   1.290       .  A
C1021      C1377   1.429       .  S
O1022      C1024   1.284       .  A
O1023     Zr1052   2.449       .  S
O1023      C1024   1.289       .  A
C1024      C1273   1.471       .  S
Zr1025     O1027   2.434       .  S
Zr1025     O1055   2.363       .  S
Zr1025     O1057   2.350       .  S
O1026      H1069   0.990       .  S
O1027      H1068   0.990       .  S
O1027      H1072   0.990       .  S
Zr1028     O1029   2.437       .  S
Zr1028     O1030   2.437       .  S
Zr1028     O1032   2.368       .  S
Zr1028     O1031   2.368       .  S
Zr1028     O1056   2.363       .  S
Zr1028     O1058   2.363       .  S
O1029      H1070   0.990       .  S
O1029      H1073   0.990       .  S
O1030      H1063   0.990       .  S
O1032     Zr1052   2.384   1_556  S
O1032      H1059   0.966       .  S
O1033     Zr1045   2.394       .  S
O1033      C1035   1.277       .  A
O1034      C1035   1.292       .  A
C1035      C1365   1.433       .  S
O1036     Zr1048   2.521       .  S
O1037     Zr1051   2.416       .  S
O1037      C1038   1.288       .  A
C1038      C1269   1.496       .  S
O1039     Zr1048   2.529   1_554  S
O1039      C1041   1.304       .  A
O1040     Zr1052   2.401       .  S
O1040      C1041   1.284       .  A
O1042     Zr1045   2.389       .  S
O1042      C1044   1.276       .  A
O1043     Zr1051   2.460       .  S
O1043      C1044   1.292       .  A
C1044      C1376   1.428       .  S
Zr1045     O1046   2.435       .  S
Zr1045     O1047   2.434       .  S
Zr1045     O1053   2.354       .  S
Zr1045     O1054   2.358       .  S
Zr1045     O1057   2.370       .  S
Zr1045     O1055   2.371       .  S
O1046      H1066   0.990       .  S
O1046      H1071   0.990       .  S
O1047      H1067   0.990       .  S
Zr1048     O1050   2.434       .  S
Zr1048     O1058   2.385       .  S
Zr1048     O1056   2.390       .  S
O1049      H1065   0.990       .  S
O1050      H1064   0.990       .  S
O1050      H1074   0.990       .  S
Zr1051     O1054   2.400       .  S
Zr1051     O1057   2.379       .  S
Zr1052     O1058   2.394   1_554  S
O1053      H1061   0.966       .  S
O1056      H1060   0.966       .  S
O1057      H1062   0.966       .  S
O1075     Zr1087   2.411       .  S
O1075      C1077   1.280       .  A
O1076      C1077   1.294       .  A
C1077      C1385   1.442       .  S
O1078      C1080   1.284       .  A
O1079     Zr1114   2.471       .  S
O1079      C1080   1.293   1_556  A
C1080      C1265   1.499       .  S
O1081     Zr1090   2.452       .  S
O1082     Zr1113   2.457       .  S
C1083      C1278   1.484       .  S
O1084     Zr1087   2.405       .  S
O1084      C1086   1.279       .  A
O1085     Zr1114   2.459       .  S
O1085      C1086   1.292       .  A
C1086      C1329   1.435       .  S
Zr1087     O1088   2.434       .  S
Zr1087     O1089   2.436       .  S
Zr1087     O1093   2.372       .  S
Zr1087     O1094   2.370       .  S
Zr1087     O1117   2.366       .  S
Zr1087     O1119   2.364       .  S
O1088      H1131   0.990       .  S
O1089      H1130   0.990       .  S
O1089      H1134   0.990       .  S
Zr1090     O1092   2.436       .  S
Zr1090     O1118   2.364       .  S
Zr1090     O1120   2.376       .  S
O1091      H1132   0.990       .  S
O1091      H1135   0.990       .  S
O1092      H1125   0.990       .  S
O1094     Zr1114   2.386       .  S
O1094      H1121   0.966       .  S
O1095     Zr1107   2.531       .  S
O1095      C1097   1.306       .  A
O1096     Zr1114   2.411       .  S
O1096      C1097   1.287       .  A
C1097      C1298   1.519       .  S
O1098     Zr1110   2.407       .  S
O1098      C1100   1.280       .  A
O1099     Zr1113   2.469       .  S
O1099      C1100   1.294       .  A
C1100      C1384   1.441       .  S
O1101     Zr1110   2.404       .  S
O1101      C1103   1.279       .  A
O1102      C1103   1.292       .  A
C1103      C1328   1.435       .  S
O1104     Zr1107   2.516       .  S
O1105     Zr1113   2.406       .  S
O1105      C1106   1.286       .  A
C1106      C1282   1.513       .  S
Zr1107     O1109   2.434       .  S
Zr1107     O1119   2.387       .  S
Zr1107     O1117   2.380       .  S
O1108      H1128   0.990       .  S
O1108      H1133   0.990       .  S
O1109      H1129   0.990       .  S
Zr1110     O1111   2.434       .  S
Zr1110     O1112   2.434       .  S
Zr1110     O1116   2.366       .  S
Zr1110     O1115   2.366       .  S
Zr1110     O1120   2.368       .  S
Zr1110     O1118   2.368       .  S
O1111      H1127   0.990       .  S
O1112      H1126   0.990       .  S
O1112      H1136   0.990       .  S
Zr1113     O1116   2.395       .  S
Zr1113     O1118   2.384       .  S
Zr1114     O1117   2.399       .  S
O1115      H1123   0.966       .  S
O1118      H1122   0.966       .  S
O1119      H1124   0.966       .  S
O1137     Zr1149   2.432       .  S
O1138     Zr1175   2.444       .  S
C1139      C1274   1.484       .  S
O1140     Zr1152   2.400       .  S
O1140      C1142   1.278       .  A
O1141     Zr1176   2.459   1_556  S
O1141      C1142   1.292       .  A
C1142      C1340   1.433       .  S
O1143     Zr1152   2.398       .  S
O1143      C1145   1.278       .  A
O1144      C1145   1.291       .  A
C1145      C1364   1.432       .  S
O1146      C1148   1.285       .  A
O1147     Zr1176   2.460       .  S
O1147      C1148   1.290       .  A
C1148      C1266   1.481       .  S
Zr1149     O1151   2.435       .  S
Zr1149     O1179   2.367       .  S
Zr1149     O1181   2.359       .  S
O1150      H1193   0.990       .  S
O1151      H1192   0.990       .  S
O1151      H1196   0.990       .  S
Zr1152     O1153   2.436       .  S
Zr1152     O1154   2.435       .  S
Zr1152     O1156   2.371       .  S
Zr1152     O1155   2.368       .  S
Zr1152     O1180   2.365       .  S
Zr1152     O1182   2.364       .  S
O1153      H1194   0.990       .  S
O1153      H1197   0.990       .  S
O1154      H1187   0.990       .  S
O1156     Zr1176   2.381   1_556  S
O1156      H1183   0.966       .  S
O1157     Zr1169   2.391       .  S
O1157      C1159   1.277       .  A
O1158      C1159   1.292       .  A
C1159      C1333   1.429       .  S
O1160     Zr1172   2.528       .  S
O1161     Zr1175   2.392       .  S
O1161      C1162   1.282       .  A
C1162      C1286   1.491       .  S
O1163     Zr1172   2.529       .  S
O1163      C1165   1.304       .  A
O1164     Zr1176   2.398   1_556  S
O1164      C1165   1.284   1_556  A
C1165      C1261   1.497   1_554  S
O1166     Zr1169   2.401       .  S
O1166      C1168   1.278       .  A
O1167     Zr1175   2.464       .  S
O1167      C1168   1.293       .  A
C1168      C1357   1.436       .  S
Zr1169     O1170   2.435       .  S
Zr1169     O1171   2.434       .  S
Zr1169     O1177   2.361       .  S
Zr1169     O1178   2.358       .  S
Zr1169     O1181   2.369       .  S
Zr1169     O1179   2.369       .  S
O1170      H1190   0.990       .  S
O1170      H1195   0.990       .  S
O1171      H1191   0.990       .  S
Zr1172     O1174   2.433   1_554  S
Zr1172     O1182   2.389   1_554  S
Zr1172     O1180   2.383   1_554  S
O1173      H1189   0.990       .  S
O1174      H1188   0.990       .  S
O1174      H1198   0.990       .  S
Zr1175     O1178   2.391       .  S
Zr1175     O1181   2.381       .  S
Zr1176     O1182   2.396   1_554  S
O1177      H1185   0.966       .  S
O1180      H1184   0.966       .  S
O1181      H1186   0.966       .  S
O1199     Zr1211   2.408       .  S
O1199      C1201   1.280       .  A
O1200      C1201   1.294       .  A
C1201      C1401   1.440       .  S
O1202      C1204   1.286       .  A
O1203     Zr1238   2.476       .  S
O1203      C1204   1.295       .  A
C1204      C1306   1.505       .  S
O1205     Zr1214   2.422       .  S
O1206     Zr1237   2.467       .  S
C1207      C1290   1.514       .  S
O1208     Zr1211   2.398       .  S
O1208      C1210   1.278       .  A
O1209     Zr1238   2.459       .  S
O1209      C1210   1.292       .  A
C1210      C1313   1.432       .  S
Zr1211     O1212   2.434       .  S
Zr1211     O1213   2.436       .  S
Zr1211     O1217   2.368       .  S
Zr1211     O1218   2.367       .  S
Zr1211     O1241   2.367       .  S
Zr1211     O1243   2.362       .  S
O1212      H1255   0.990       .  S
O1213      H1254   0.990       .  S
O1213      H1258   0.990       .  S
Zr1214     O1216   2.435       .  S
Zr1214     O1242   2.362       .  S
Zr1214     O1244   2.364       .  S
O1215      H1256   0.990       .  S
O1215      H1259   0.990       .  S
O1216      H1249   0.990       .  S
O1218     Zr1238   2.385       .  S
O1218      H1245   0.966       .  S
O1219     Zr1231   2.496       .  S
O1219      C1221   1.298   1_554  A
O1220     Zr1238   2.433       .  S
O1220      C1221   1.292       .  A
C1221      C1262   1.511   1_556  S
O1222     Zr1234   2.406       .  S
O1222      C1224   1.279       .  A
O1223     Zr1237   2.461       .  S
O1223      C1224   1.292       .  A
C1224      C1400   1.436       .  S
O1225     Zr1234   2.403       .  S
O1225      C1227   1.278       .  A
O1226      C1227   1.290       .  A
C1227      C1312   1.431       .  S
O1228     Zr1231   2.479       .  S
O1229     Zr1237   2.409       .  S
O1229      C1230   1.287       .  A
C1230      C1270   1.512       .  S
Zr1231     O1233   2.435   1_554  S
Zr1231     O1243   2.384   1_554  S
Zr1231     O1241   2.379   1_554  S
O1232      H1252   0.990       .  S
O1232      H1257   0.990       .  S
O1233      H1253   0.990       .  S
Zr1234     O1235   2.435       .  S
Zr1234     O1236   2.435       .  S
Zr1234     O1240   2.362       .  S
Zr1234     O1239   2.366       .  S
Zr1234     O1244   2.372       .  S
Zr1234     O1242   2.367       .  S
O1235      H1251   0.990       .  S
O1236      H1250   0.990       .  S
O1236      H1260   0.990       .  S
Zr1237     O1240   2.398       .  S
Zr1237     O1242   2.381       .  S
Zr1238     O1241   2.395       .  S
O1239      H1247   0.966       .  S
O1242      H1246   0.966       .  S
O1243      H1248   0.966       .  S
C1261      C1262   1.354   1_556  D
C1262      H1264   1.085       .  S
C1265      C1266   1.353       .  D
C1265      H1267   1.085   1_554  S
C1269      C1270   1.360   1_565  D
C1270      H1272   1.085   1_545  S
C1273      C1274   1.346       .  D
C1274      H1276   1.086   1_554  S
C1277      C1278   1.348   1_556  D
C1277      H1279   1.086       .  S
C1281      C1282   1.362   1_545  D
C1281      H1283   1.087       .  S
C1285      C1286   1.351   1_655  D
C1286      H1288   1.088       .  S
C1289      C1290   1.362       .  D
C1289      H1291   1.087       .  S
C1293      C1294   1.352   1_655  D
C1294      H1296   1.089       .  S
C1297      C1298   1.365       .  D
C1298      H1300   1.085       .  S
C1301      C1302   1.350   1_554  D
C1302      H1304   1.086       .  S
C1305      C1306   1.356   1_554  D
C1306      H1308   1.085       .  S
C1309      C1310   1.206       .  T
C1310      C1311   1.413       .  S
C1311      C1312   1.205       .  T
C1313      C1314   1.206       .  T
C1314      C1315   1.414       .  S
C1315      C1316   1.207       .  T
C1317      C1318   1.205       .  T
C1318      C1319   1.411       .  S
C1319      C1320   1.204       .  T
C1321      C1322   1.205       .  T
C1322      C1323   1.412       .  S
C1323      C1324   1.205       .  T
C1325      C1326   1.208       .  T
C1326      C1327   1.416       .  S
C1327      C1328   1.207       .  T
C1329      C1330   1.207       .  T
C1330      C1331   1.415       .  S
C1331      C1332   1.208       .  T
C1333      C1334   1.206       .  T
C1334      C1335   1.414       .  S
C1335      C1336   1.207       .  T
C1337      C1338   1.208       .  T
C1338      C1339   1.415       .  S
C1339      C1340   1.207       .  T
C1341      C1342   1.208       .  T
C1342      C1343   1.416       .  S
C1343      C1344   1.208       .  T
C1345      C1346   1.204       .  T
C1346      C1347   1.411       .  S
C1347      C1348   1.205       .  T
C1349      C1350   1.208       .  T
C1350      C1351   1.416       .  S
C1351      C1352   1.207       .  T
C1353      C1354   1.208       .  T
C1354      C1355   1.417       .  S
C1355      C1356   1.209       .  T
C1357      C1358   1.209       .  T
C1358      C1359   1.418       .  S
C1359      C1360   1.209       .  T
C1361      C1362   1.207       .  T
C1362      C1363   1.415       .  S
C1363      C1364   1.207       .  T
C1365      C1366   1.207       .  T
C1366      C1367   1.415       .  S
C1367      C1368   1.207       .  T
C1369      C1370   1.207       .  T
C1370      C1371   1.415       .  S
C1371      C1372   1.206       .  T
C1373      C1374   1.207       .  T
C1374      C1375   1.414       .  S
C1375      C1376   1.206       .  T
C1377      C1378   1.204       .  T
C1378      C1379   1.411       .  S
C1379      C1380   1.205       .  T
C1381      C1382   1.211       .  T
C1382      C1383   1.421       .  S
C1383      C1384   1.211       .  T
C1385      C1386   1.212       .  T
C1386      C1387   1.423       .  S
C1387      C1388   1.212       .  T
C1389      C1390   1.204       .  T
C1390      C1391   1.411       .  S
C1391      C1392   1.204       .  T
C1393      C1394   1.202       .  T
C1394      C1395   1.406       .  S
C1395      C1396   1.201       .  T
C1397      C1398   1.209       .  T
C1398      C1399   1.418       .  S
C1399      C1400   1.209       .  T
C1401      C1402   1.211       .  T
C1402      C1403   1.421       .  S
C1403      C1404   1.211       .  T
