geometry optimzed in LAMMPS
_audit_creation_date              2020-11-30 
_audit_creation_method            'lammps2cif' 
_symmetry_space_group_name_H-M    'P1' 
_symmetry_Int_Tables_number       1 
_symmetry_cell_setting            triclinic 
loop_ 
_symmetry_equiv_pos_as_xyz 
  x,y,z 
_cell_length_a                    32.03213207399798 
_cell_length_b                    31.646998115032545 
_cell_length_c                    34.33233914152795 
_cell_angle_alpha                 87.50851140573224 
_cell_angle_beta                  90.30218891510968 
_cell_angle_gamma                 121.01555695053058 
loop_ 
_atom_site_label 
_atom_site_type_symbol 
_atom_site_fract_x 
_atom_site_fract_y 
_atom_site_fract_z 
_atom_site_charge 
C1          C  0.34979747  0.20093215  0.99489560    -0.02580
C2          C  0.35136642  0.19586496  0.16701785    -0.02580
C3          C  0.16821690  0.34810723  0.41421533    -0.02580
C4          C  0.16694460  0.33239286  0.24507602    -0.02580
O5          O  0.39083959  0.48091269  0.47892910    -0.80230
O6          O  0.06459757  0.98311503  0.42765089    -0.80250
O7          O  0.48607580  0.99843637  0.37333140    -0.80260
O8          O  0.48720328  0.43713361  0.47082031    -0.80200
O9          O  0.06224323  0.05411360  0.37345484    -0.80320
O10         O  0.43902132  0.44022337  0.51453174    -0.80240
O11         O  0.08146546  0.47357100  0.48841259    -0.80230
O12         O  0.40485645  0.96556509  0.41992918    -0.80270
C13         C  0.37564167  0.45839716  0.44772074     1.09460
C14         C  0.08130540  0.46425546  0.45318965     1.09350
C15         C  0.02561392  0.02332244  0.35437361     1.09480
C16         C  0.44952941  0.41565568  0.49167754     1.09360
O17         O  0.51013676  0.54285750  0.04259515    -0.80230
O18         O  0.07436570  0.11396813  0.43922907    -0.80310
O19         O  0.43445096  0.06496056  0.43610665    -0.80240
O20         O  0.10628018  0.06754193  0.48851819    -0.80220
O21         O  0.13352483  0.07870517  0.42759903    -0.80270
O22         O  0.46313219  0.07888969  0.49597203    -0.80240
O23         O  0.03044547  0.48840164  0.03941369    -0.80200
O24         O  0.01948285  0.10338904  0.39552755    -0.80270
Co25       Co  0.45493579  0.51210175  0.50529149     1.51530
Co26       Co  0.06565255  0.04901998  0.43373716     1.51690
Co27       Co  0.46407412  0.03192142  0.40900997     1.51570
Co28       Co  0.04219187  0.50118678  0.48017149     1.51470
O29         O  0.99833600  0.02404238  0.45709195    -1.42160
C30         C  0.52311331  0.51591916  0.06033557     1.09390
C31         C  0.05599104  0.13167711  0.41639728     1.09480
C32         C  0.44356778  0.08838362  0.46709128     1.09420
C33         C  0.14223850  0.08624417  0.46337969     1.09390
O34         O  0.40286075  0.94939585  0.24687719    -0.80230
O35         O  0.08063365  0.46311372  0.17957689    -0.80250
O36         O  0.44193878  0.43448270  0.15067370    -0.80260
O37         O  0.06182496  0.04681863  0.28781942    -0.80200
O38         O  0.48603286  0.42597271  0.19643121    -0.80320
O39         O  0.48690319  0.98822531  0.29357958    -0.80240
O40         O  0.06472390  0.97247138  0.24019900    -0.80230
O41         O  0.39227997  0.46973222  0.18675868    -0.80270
C42         C  0.37536956  0.44349143  0.21802558     1.09460
C43         C  0.08025061  0.45312570  0.21559059     1.09350
C44         C  0.45086562  0.40727494  0.17397470     1.09480
C45         C  0.02577327  0.01828837  0.31021231     1.09360
O46         O  0.01471200  0.08844495  0.26175027    -0.80230
O47         O  0.03158163  0.48448797  0.12548824    -0.80310
O48         O  0.46376619  0.07018502  0.16792109    -0.80240
O49         O  0.13229582  0.06910048  0.23439345    -0.80220
O50         O  0.10680815  0.05851697  0.17389613    -0.80270
O51         O  0.42810935  0.04805769  0.22598121    -0.80240
O52         O  0.06983448  0.10135927  0.21660593    -0.80200
O53         O  0.51336754  0.54066238  0.12307352    -0.80270
Co54       Co  0.46083096  0.01711254  0.25450273     1.51530
Co55       Co  0.04181616  0.49108464  0.18515090     1.51690
Co56       Co  0.45647741  0.50492852  0.15955498     1.51570
Co57       Co  0.06434087  0.03806146  0.22865755     1.51470
O58         O  0.99706068  0.01196122  0.20737649    -1.42160
C59         C  0.04991682  0.11733846  0.23807438     1.09390
C60         C  0.52463311  0.51445280  0.10470405     1.09480
C61         C  0.44099118  0.07595405  0.19540951     1.09420
C62         C  0.14221780  0.07735475  0.19842617     1.09390
C63         C  0.09055752  0.20109414  0.20419831    -0.21400
C64         C  0.07390188  0.17101407  0.23888927    -0.09440
C65         C  0.09087021  0.19222857  0.27433967     0.29420
C66         C  0.12318575  0.24235006  0.27533158    -0.21400
C67         C  0.13553221  0.27502266  0.24160998    -0.09450
C68         C  0.12139216  0.25263997  0.20546606     0.29430
F69         F  0.13722488  0.28049332  0.17159757    -0.19970
H70         H  0.08035727  0.18447148  0.17616217     0.17790
H71         H  0.13906860  0.25446073  0.30346134     0.17800
F72         F  0.08003793  0.16386088  0.30791005    -0.19960
C73         C  0.07526191  0.37279121  0.21129041    -0.21400
C74         C  0.09713249  0.41949689  0.22706775    -0.09440
C75         C  0.14230327  0.43857808  0.24422888     0.29420
C76         C  0.16667985  0.41286277  0.24328538    -0.21400
C77         C  0.14387942  0.36352174  0.23062584    -0.09450
C78         C  0.09708755  0.34413863  0.21418100     0.29430
F79         F  0.07068959  0.29746934  0.20229179    -0.19970
H80         H  0.04058385  0.35811840  0.19707469     0.17790
H81         H  0.20226047  0.42985007  0.25634936     0.17800
F82         F  0.16339763  0.98268241  0.26129147    -0.19960
C83         C  0.24141667  0.39522337  0.20253863    -0.21400
C84         C  0.21845586  0.35180850  0.22668005    -0.09440
C85         C  0.24793434  0.33283360  0.24028741     0.29420
C86         C  0.29901160  0.36294277  0.23886561    -0.21400
C87         C  0.32160474  0.40988144  0.22001305    -0.09450
C88         C  0.29204960  0.42457792  0.20026072     0.29430
F89         F  0.31193577  0.96947872  0.18112445    -0.19970
H90         H  0.22083629  0.40933974  0.18790242     0.17790
H91         H  0.32044371  0.35027111  0.25404375     0.17800
F92         F  0.22800916  0.28902623  0.26090607    -0.19960
C93         C  0.06024417  0.21163507  0.42887238    -0.21400
C94         C  0.08141393  0.18638824  0.41386354    -0.09440
C95         C  0.13144215  0.21307500  0.40514984     0.29420
C96         C  0.15975554  0.26346809  0.41163568    -0.21400
C97         C  0.13906014  0.29085206  0.42464514    -0.09450
C98         C  0.08798891  0.26299217  0.43369196     0.29430
F99         F  0.06311814  0.28474496  0.44432012    -0.19970
H100        H  0.02193199  0.19155975  0.43681856     0.17790
H101        H  0.19762647  0.28232803  0.40231779     0.17800
F102        F  0.15289789  0.19027002  0.38916405    -0.19960
C103        C  0.10796332  0.40504233  0.47234125    -0.21400
C104        C  0.09900133  0.43175383  0.44290895    -0.09440
C105        C  0.11213729  0.43130674  0.40453175     0.29420
C106        C  0.13393577  0.40492395  0.39567156    -0.21400
C107        C  0.14161557  0.37577920  0.42440575    -0.09450
C108        C  0.12970336  0.37797553  0.46333105     0.29430
F109        F  0.13922086  0.35401990  0.49254957    -0.19970
H110        H  0.09905929  0.40589681  0.50257371     0.17790
H111        H  0.14740932  0.41071529  0.36600481     0.17800
F112        F  0.10718490  0.45912828  0.37571131    -0.19960
C113        C  0.24174134  0.35648607  0.45316315    -0.21400
C114        C  0.22008494  0.37854566  0.43129676    -0.09440
C115        C  0.25041979  0.42966583  0.41997584     0.29360
C116        C  0.30063516  0.45441515  0.42528343    -0.21400
C117        C  0.32243651  0.42995974  0.44224090    -0.09450
C118        C  0.29240821  0.38145920  0.45751374     0.29430
F119        F  0.31195998  0.35716409  0.47513253    -0.19970
H120        H  0.22035453  0.31896833  0.46499335     0.17790
H121        H  0.32287236  0.49260678  0.41484290     0.17800
F122        F  0.23313407  0.45457813  0.39921143    -0.19960
C123        C  0.21512423  0.36496390  0.30843716    -0.21400
C124        C  0.17076952  0.34176054  0.28876080    -0.09440
C125        C  0.12721065  0.32599657  0.31017284     0.29420
C126        C  0.12790053  0.32706704  0.34981304    -0.21400
C127        C  0.17207201  0.34811884  0.36989640    -0.09450
C128        C  0.21575244  0.36456486  0.34843463     0.29430
F129        F  0.25874504  0.37643745  0.36496251    -0.19970
H130        H  0.25008239  0.38268342  0.29382426     0.17790
H131        H  0.09339533  0.31257437  0.36516919     0.17800
F132        F  0.08309957  0.30504494  0.29295703    -0.19960
C133        C  0.21567934  0.15720677  0.17771057    -0.21400
C134        C  0.19371348  0.10685388  0.18680501    -0.09440
C135        C  0.22289260  0.08625047  0.19269093     0.29420
C136        C  0.27351445  0.11564796  0.19068476    -0.21400
C137        C  0.29718957  0.16692851  0.18145745    -0.09450
C138        C  0.26638019  0.18662022  0.17367710     0.29430
F139        F  0.28467120  0.23367165  0.15956317    -0.19970
H140        H  0.19352354  0.17374301  0.17336638     0.17790
H141        H  0.29323667  0.09650786  0.19300983     0.17800
F142        F  0.20218772  0.03689384  0.19905086    -0.19960
C143        C  0.42962652  0.28055038  0.16284484    -0.21400
C144        C  0.38301785  0.24968744  0.18068056    -0.09440
C145        C  0.36545170  0.27301875  0.20417778     0.29420
C146        C  0.38577620  0.32438646  0.19982254    -0.21400
C147        C  0.42510802  0.35323337  0.17393077    -0.09450
C148        C  0.44929699  0.33142355  0.15809855     0.29430
F149        F  0.49101687  0.35914074  0.13662606    -0.19970
H150        H  0.44769585  0.26532397  0.14749022     0.17790
H151        H  0.37163824  0.34191701  0.21705180     0.17800
F152        F  0.32839269  0.24677832  0.23040575    -0.19960
C153        C  0.38013892  0.15021055  0.21402332    -0.21400
C154        C  0.38125899  0.17015486  0.17631195    -0.09440
C155        C  0.41239419  0.16745828  0.14805916     0.29420
C156        C  0.43286831  0.13845515  0.15521489    -0.21400
C157        C  0.42527963  0.11261587  0.19089807    -0.09450
C158        C  0.40062134  0.12065187  0.22110152     0.29430
F159        F  0.39495356  0.09892969  0.25720759    -0.19970
H160        H  0.36042394  0.15473849  0.23741392     0.17790
H161        H  0.45387656  0.13536358  0.13207273     0.17800
F162        F  0.42377291  0.19262123  0.11298570    -0.19960
C163        C  0.27021372  0.19095897  0.46480363    -0.21400
C164        C  0.29604158  0.16877818  0.48011878    -0.09440
C165        C  0.26854290  0.11623746  0.98420750     0.29420
C166        C  0.21776384  0.09031096  0.98259326    -0.21400
C167        C  0.19296485  0.11507953  0.47442489    -0.09450
C168        C  0.21961723  0.16533127  0.46428245     0.29430
F169        F  0.19673221  0.18963512  0.45296052    -0.19970
H170        H  0.28807597  0.22849425  0.45318826     0.17790
H171        H  0.19790671  0.05031237  0.98523060     0.17800
F172        F  0.28978374  0.08868609  0.98479136    -0.19960
C173        C  0.34809646  0.28143308  0.99993175    -0.21400
C174        C  0.37010918  0.25690702  0.48272007    -0.09440
C175        C  0.41452887  0.28714743  0.46229196     0.29420
C176        C  0.43855273  0.33843487  0.46452113    -0.21400
C177        C  0.42032552  0.36132316  0.48811345    -0.09450
C178        C  0.37492533  0.33192670  0.00613392     0.29430
F179        F  0.35789327  0.35096320  0.03207341    -0.19970
H180        H  0.31384283  0.26009395  0.01598842     0.17790
H181        H  0.47310643  0.36009038  0.44895463     0.17800
F182        F  0.43609539  0.26807311  0.44120351    -0.19960
C183        C  0.44330772  0.15814356  0.99927528    -0.21400
C184        C  0.42723185  0.12468645  0.46953646    -0.09440
C185        C  0.39449663  0.12580467  0.44222588     0.29420
C186        C  0.37381539  0.15483956  0.44786427    -0.21400
C187        C  0.38368516  0.18218909  0.48144872    -0.09450
C188        C  0.42335614  0.18790710  0.00432749     0.29430
F189        F  0.44217306  0.22116449  0.03252100    -0.19970
H190        H  0.47095219  0.16087757  0.01907207     0.17790
H191        H  0.34707276  0.15277302  0.42739203     0.17800
F192        F  0.37990058  0.09665988  0.41116541    -0.19960
C193        C  0.32460967  0.15122790  0.10354462    -0.21400
C194        C  0.34380885  0.19579682  0.12291884    -0.09440
C195        C  0.35928214  0.23894076  0.10003198     0.29420
C196        C  0.37120634  0.23971109  0.06202602    -0.21400
C197        C  0.34800951  0.19661610  0.04051388    -0.09450
C198        C  0.32716532  0.15147832  0.06307077     0.29430
F199        F  0.31715406  0.10873686  0.04809952    -0.19970
H200        H  0.31199278  0.11661609  0.11990454     0.17790
H201        H  0.39823991  0.27551773  0.04987544     0.17800
F202        F  0.36459353  0.28098270  0.11356605    -0.19960
C203        C  0.34979343  0.20094977  0.49489738    -0.02580
C204        C  0.35136503  0.19587205  0.66701973    -0.02580
C205        C  0.16821811  0.34808974  0.91421288    -0.02580
C206        C  0.16694302  0.33239658  0.74507187    -0.02580
O207        O  0.39084005  0.48088464  0.97892960    -0.80230
O208        O  0.06460700  0.98310548  0.92765249    -0.80250
O209        O  0.48607877  0.99841744  0.87333214    -0.80260
O210        O  0.48721404  0.43711681  0.97082409    -0.80200
O211        O  0.06224359  0.05410129  0.87345523    -0.80320
O212        O  0.43902838  0.44020354  0.01453376    -0.80240
O213        O  0.08147777  0.47356364  0.98841438    -0.80230
O214        O  0.40485899  0.96553660  0.91993050    -0.80270
C215        C  0.37564334  0.45836720  0.94772181     1.09460
C216        C  0.08131721  0.46424776  0.95319140     1.09350
C217        C  0.02561510  0.02330996  0.85437335     1.09480
C218        C  0.44953933  0.41563732  0.99168039     1.09360
O219        O  0.51013553  0.54287371  0.54259576    -0.80230
O220        O  0.07435964  0.11395189  0.93923009    -0.80310
O221        O  0.43444271  0.06493040  0.93610784    -0.80240
O222        O  0.10628442  0.06753208  0.98851766    -0.80220
O223        O  0.13352694  0.07869948  0.92759745    -0.80270
O224        O  0.46312849  0.07886493  0.99597140    -0.80240
O225        O  0.03043714  0.48841268  0.53941137    -0.80200
O226        O  0.01947526  0.10336664  0.89552805    -0.80270
Co227      Co  0.45493685  0.51207944  0.00529205     1.51530
Co228      Co  0.06565436  0.04900709  0.93373772     1.51690
Co229      Co  0.46407167  0.03189673  0.90901099     1.51570
Co230      Co  0.04219902  0.50117340  0.98017315     1.51470
O231        O  0.99833705  0.02402212  0.95709266    -1.42160
C232        C  0.52310897  0.51593161  0.56033461     1.09390
C233        C  0.05598297  0.13165755  0.91639708     1.09480
C234        C  0.44356184  0.08835624  0.96709116     1.09420
C235        C  0.14224182  0.08623788  0.96337797     1.09390
O236        O  0.40285879  0.94940076  0.74687617    -0.80230
O237        O  0.08063150  0.46311922  0.67957234    -0.80250
O238        O  0.44193603  0.43448962  0.65067239    -0.80260
O239        O  0.06182358  0.04681732  0.78781857    -0.80200
O240        O  0.48603141  0.42597899  0.69642825    -0.80320
O241        O  0.48690134  0.98822449  0.79357763    -0.80240
O242        O  0.06472152  0.97247357  0.74019515    -0.80230
O243        O  0.39227818  0.46973972  0.68675861    -0.80270
C244        C  0.37536751  0.44349791  0.71802491     1.09460
C245        C  0.08024812  0.45312926  0.71558575     1.09350
C246        C  0.45086346  0.40728152  0.67397262     1.09480
C247        C  0.02577239  0.01828418  0.81021089     1.09360
O248        O  0.01471284  0.08844763  0.76175258    -0.80230
O249        O  0.03157841  0.48449653  0.62548534    -0.80310
O250        O  0.46376514  0.07019200  0.66792272    -0.80240
O251        O  0.13229407  0.06910224  0.73439196    -0.80220
O252        O  0.10680699  0.05852313  0.67389449    -0.80270
O253        O  0.42811024  0.04806502  0.72598367    -0.80240
O254        O  0.06983363  0.10136252  0.71660665    -0.80200
O255        O  0.51336558  0.54067154  0.62307443    -0.80270
Co256      Co  0.46083040  0.01711620  0.75450316     1.51530
Co257      Co  0.04181442  0.49109077  0.68514821     1.51690
Co258      Co  0.45647536  0.50493577  0.65955515     1.51570
Co259      Co  0.06433928  0.03806419  0.72865612     1.51470
O260        O  0.99705920  0.01196622  0.70737576    -1.42160
C261        C  0.04991631  0.11734135  0.73807570     1.09390
C262        C  0.52462997  0.51446266  0.60470299     1.09480
C263        C  0.44099040  0.07596073  0.69541148     1.09420
C264        C  0.14221639  0.07735923  0.69842484     1.09390
C265        C  0.09055279  0.20109569  0.70419775    -0.21400
C266        C  0.07390059  0.17101694  0.73888958    -0.09440
C267        C  0.09087310  0.19223284  0.77433882     0.29420
C268        C  0.12318901  0.24235441  0.77532879    -0.21400
C269        C  0.13553118  0.27502594  0.74160688    -0.09450
C270        C  0.12138781  0.25264171  0.70546378     0.29430
F271        F  0.13721777  0.28049363  0.67159449    -0.19970
H272        H  0.08034980  0.18447181  0.67616219     0.17790
H273        H  0.13907578  0.25446618  0.80345725     0.17800
F274        F  0.08004485  0.16386640  0.80790952    -0.19960
C275        C  0.07525989  0.37279465  0.71128513    -0.21400
C276        C  0.09713041  0.41950051  0.72706207    -0.09440
C277        C  0.14230045  0.43858136  0.74422434     0.29420
C278        C  0.16667675  0.41286575  0.74328202    -0.21400
C279        C  0.14387673  0.36352477  0.73062242    -0.09450
C280        C  0.09708501  0.34414160  0.71417717     0.29430
F281        F  0.07068671  0.29747201  0.70228871    -0.19970
H282        H  0.04058207  0.35812183  0.69706905     0.17790
H283        H  0.20225712  0.42985321  0.75634643     0.17800
F284        F  0.16339563  0.98268613  0.76128616    -0.19960
C285        C  0.24141492  0.39522890  0.70253547    -0.21400
C286        C  0.21845389  0.35181256  0.72667516    -0.09440
C287        C  0.24793267  0.33283781  0.74028216     0.29420
C288        C  0.29900973  0.36294796  0.73886208    -0.21400
C289        C  0.32160280  0.40988767  0.72001148    -0.09450
C290        C  0.29204784  0.42458462  0.70025941     0.29430
F291        F  0.31193408  0.96948534  0.68112363    -0.19970
H292        H  0.22083452  0.40934555  0.68789962     0.17790
H293        H  0.32044174  0.35027605  0.75404046     0.17800
F294        F  0.22800769  0.28902911  0.76089880    -0.19960
C295        C  0.06024104  0.21161728  0.92887466    -0.21400
C296        C  0.08140521  0.18636839  0.91385933    -0.09440
C297        C  0.13143084  0.21305355  0.90513602     0.29420
C298        C  0.15974740  0.26344701  0.91161905    -0.21400
C299        C  0.13905786  0.29083283  0.92463720    -0.09450
C300        C  0.08798874  0.26297484  0.93369207     0.29430
F301        F  0.06312233  0.28472938  0.94432723    -0.19970
H302        H  0.02193106  0.19154307  0.93682811     0.17790
H303        H  0.19761581  0.28230546  0.90229412     0.17800
F304        F  0.15288102  0.19024608  0.88914510    -0.19960
C305        C  0.10797162  0.40503084  0.97234246    -0.21400
C306        C  0.09901233  0.43174535  0.94291082    -0.09440
C307        C  0.11214832  0.43129891  0.90453374     0.29420
C308        C  0.13394335  0.40491338  0.89567276    -0.21400
C309        C  0.14161930  0.37576416  0.92440567    -0.09450
C310        C  0.12970809  0.37796067  0.96333125     0.29430
F311        F  0.13922348  0.35400242  0.99254901    -0.19970
H312        H  0.09906777  0.40588511  0.00257500     0.17790
H313        H  0.14741851  0.41070739  0.86600633     0.17800
F314        F  0.10719983  0.45912400  0.87571413    -0.19960
C315        C  0.24174397  0.35645159  0.95314842    -0.21400
C316        C  0.22008611  0.37852111  0.93129660    -0.09440
C317        C  0.25042118  0.42964553  0.91998893     0.29360
C318        C  0.30063601  0.45439331  0.92529885    -0.21400
C319        C  0.32243841  0.42993043  0.94224032    -0.09450
C320        C  0.29241132  0.38142097  0.95749516     0.29430
F321        F  0.31196439  0.35711303  0.97508966    -0.19970
H322        H  0.22035856  0.31892885  0.96496802     0.17790
H323        H  0.32287254  0.49258996  0.91487058     0.17800
F324        F  0.23313673  0.45456698  0.89923601    -0.19960
C325        C  0.21512518  0.36496900  0.80843189    -0.21400
C326        C  0.17076964  0.34176478  0.78875656    -0.09440
C327        C  0.12721129  0.32599761  0.81017003     0.29420
C328        C  0.12790183  0.32705867  0.84981068    -0.21400
C329        C  0.17207398  0.34810849  0.86989341    -0.09450
C330        C  0.21575496  0.36456432  0.84842963     0.29430
F331        F  0.25875011  0.37644182  0.86495485    -0.19970
H332        H  0.25008269  0.38269304  0.79381747     0.17790
H333        H  0.09339668  0.31256145  0.86516810     0.17800
F334        F  0.08309984  0.30504815  0.79295492    -0.19960
C335        C  0.21567784  0.15721310  0.67771293    -0.21400
C336        C  0.19371215  0.10685956  0.68680440    -0.09440
C337        C  0.22289147  0.08625627  0.69268927     0.29420
C338        C  0.27351327  0.11565431  0.69068474    -0.21400
C339        C  0.29718832  0.16693540  0.68145967    -0.09450
C340        C  0.26637878  0.18662728  0.67368078     0.29430
F341        F  0.28466953  0.23367950  0.65956905    -0.19970
H342        H  0.19352183  0.17374927  0.67336992     0.17790
H343        H  0.29323568  0.09651433  0.69300889     0.17800
F344        F  0.20218688  0.03689929  0.69904660    -0.19960
C345        C  0.42962550  0.28055682  0.66284597    -0.21400
C346        C  0.38301750  0.24969422  0.68068284    -0.09440
C347        C  0.36545205  0.27302622  0.70417993     0.29420
C348        C  0.38577582  0.32439370  0.69982301    -0.21400
C349        C  0.42510578  0.35323983  0.67392947    -0.09450
C350        C  0.44929488  0.33142973  0.65809771     0.29430
F351        F  0.49101352  0.35914628  0.63662365    -0.19970
H352        H  0.44769440  0.26532966  0.64749120     0.17790
H353        H  0.37163855  0.34192528  0.71705286     0.17800
F354        F  0.32839412  0.24678642  0.73040890    -0.19960
C355        C  0.38013749  0.15021715  0.71402466    -0.21400
C356        C  0.38125673  0.17016080  0.67631310    -0.09440
C357        C  0.41239027  0.16746255  0.64805981     0.29420
C358        C  0.43286463  0.13845958  0.65521579    -0.21400
C359        C  0.42527760  0.11262173  0.69089959    -0.09450
C360        C  0.40061998  0.12065849  0.72110305     0.29430
F361        F  0.39495317  0.09893731  0.75720941    -0.19970
H362        H  0.36042326  0.15474586  0.73741543     0.17790
H363        H  0.45387211  0.13536726  0.63207338     0.17800
F364        F  0.42376803  0.19262460  0.61298600    -0.19960
C365        C  0.27022412  0.19094428  0.96479001    -0.21400
C366        C  0.29604527  0.16876234  0.98011750    -0.09440
C367        C  0.26854475  0.11625234  0.48419937     0.29420
C368        C  0.21776567  0.09032058  0.48258356    -0.21400
C369        C  0.19296891  0.11507317  0.97442202    -0.09450
C370        C  0.21962760  0.16532146  0.96426590     0.29430
F371        F  0.19674886  0.18962626  0.95292802    -0.19970
H372        H  0.28809243  0.22847705  0.95316766     0.17790
H373        H  0.19791297  0.05032168  0.48521248     0.17800
F374        F  0.28979113  0.08870614  0.48478008    -0.19960
C375        C  0.34809137  0.28145006  0.49994075    -0.21400
C376        C  0.37011671  0.25688935  0.98271644    -0.09440
C377        C  0.41454238  0.28712938  0.96229585     0.29420
C378        C  0.43856872  0.33841659  0.96452851    -0.21400
C379        C  0.42033662  0.36130487  0.98811556    -0.09450
C380        C  0.37492004  0.33194410  0.50614056     0.29430
F381        F  0.35789685  0.35097921  0.53208903    -0.19970
H382        H  0.31384170  0.26011051  0.51600269     0.17790
H383        H  0.47312722  0.36007184  0.94896857     0.17800
F384        F  0.43611277  0.26805469  0.94121261    -0.19960
C385        C  0.44330968  0.15816831  0.49927717    -0.21400
C386        C  0.42722652  0.12465927  0.96953614    -0.09440
C387        C  0.39448910  0.12577558  0.94222712     0.29420
C388        C  0.37380982  0.15481214  0.94786527    -0.21400
C389        C  0.38368477  0.18216634  0.98144762    -0.09450
C390        C  0.42335598  0.18792999  0.50432967     0.29430
F391        F  0.44217072  0.22118585  0.53252433    -0.19970
H392        H  0.47095296  0.16090167  0.51907504     0.17790
H393        H  0.34706578  0.15274452  0.92739411     0.17800
F394        F  0.37988968  0.09662799  0.91116833    -0.19960
C395        C  0.32460632  0.15123817  0.60354478    -0.21400
C396        C  0.34380721  0.19580597  0.62292077    -0.09440
C397        C  0.35927959  0.23895094  0.60003545     0.29420
C398        C  0.37120365  0.23972351  0.56202919    -0.21400
C399        C  0.34800472  0.19663013  0.54051544    -0.09450
C400        C  0.32715849  0.15149069  0.56307052     0.29430
F401        F  0.31713813  0.10874793  0.54809633    -0.19970
H402        H  0.31198856  0.11662524  0.61990320     0.17790
H403        H  0.39823734  0.27553063  0.54987924     0.17800
F404        F  0.36458909  0.28099134  0.61357109    -0.19960
C405        C  0.34980405  0.70093153  0.99489465    -0.02580
C406        C  0.35137341  0.69586545  0.16701719    -0.02580
C407        C  0.16821107  0.84810631  0.41421562    -0.02580
C408        C  0.16693876  0.83239302  0.24507635    -0.02580
O409        O  0.39083366  0.98091381  0.47892763    -0.80230
O410        O  0.06460574  0.48311790  0.42765128    -0.80250
O411        O  0.48608102  0.49843467  0.37333184    -0.80260
O412        O  0.48719597  0.93713399  0.47081850    -0.80200
O413        O  0.06224788  0.55411404  0.37345499    -0.80320
O414        O  0.43901352  0.94022179  0.51453028    -0.80240
O415        O  0.08145728  0.97356857  0.48841217    -0.80230
O416        O  0.40486194  0.46556172  0.41993133    -0.80270
C417        C  0.37563607  0.95839964  0.44771873     1.09460
C418        C  0.08129668  0.96425222  0.45318940     1.09350
C419        C  0.02561898  0.52332171  0.35437397     1.09480
C420        C  0.44952259  0.91565485  0.49167604     1.09360
O421        O  0.51012848  0.04285560  0.04259519    -0.80230
O422        O  0.07436875  0.61396891  0.43922875    -0.80310
O423        O  0.43445411  0.56495698  0.43610738    -0.80240
O424        O  0.10628637  0.56754363  0.48851791    -0.80220
O425        O  0.13353061  0.57870939  0.42759836    -0.80270
O426        O  0.46313827  0.57888989  0.49597172    -0.80240
O427        O  0.03043704  0.98839975  0.03941312    -0.80200
O428        O  0.01948492  0.60338657  0.39552716    -0.80270
Co429      Co  0.45492903  0.01210108  0.50529080     1.51530
Co430      Co  0.06565829  0.54902177  0.43373725     1.51690
Co431      Co  0.46407816  0.53191866  0.40901065     1.51570
Co432      Co  0.04218507  0.00118611  0.48017096     1.51470
O433        O  0.99834170  0.52404172  0.45709244    -1.42160
C434        C  0.52310512  0.01591722  0.06033535     1.09390
C435        C  0.05599245  0.63167609  0.41639683     1.09480
C436        C  0.44357214  0.58838181  0.46709118     1.09420
C437        C  0.14224444  0.58624752  0.46337910     1.09390
O438        O  0.40286655  0.44939466  0.24687664    -0.80230
O439        O  0.08062678  0.96311297  0.17957709    -0.80250
O440        O  0.44193231  0.93448176  0.15067391    -0.80260
O441        O  0.06183055  0.54681830  0.28781994    -0.80200
O442        O  0.48602625  0.92597300  0.19643208    -0.80320
O443        O  0.48690883  0.48822441  0.29357964    -0.80240
O444        O  0.06473116  0.47247242  0.24019890    -0.80230
O445        O  0.39227371  0.96973190  0.18675881    -0.80270
C446        C  0.37536363  0.94349208  0.21802613     1.09460
C447        C  0.08024325  0.95312452  0.21559075     1.09350
C448        C  0.45085957  0.90727453  0.17397515     1.09480
C449        C  0.02577869  0.51828769  0.31021264     1.09360
O450        O  0.01471668  0.58844370  0.26175097    -0.80230
O451        O  0.03157480  0.98448709  0.12548809    -0.80310
O452        O  0.46377308  0.57018592  0.16792182    -0.80240
O453        O  0.13230258  0.56910171  0.23439363    -0.80220
O454        O  0.10681428  0.55851714  0.17389646    -0.80270
O455        O  0.42811476  0.54805689  0.22598131    -0.80240
O456        O  0.06984031  0.60135999  0.21660695    -0.80200
O457        O  0.51336059  0.04066131  0.12307323    -0.80270
Co458      Co  0.46083638  0.51711146  0.25450279     1.51530
Co459      Co  0.04180976  0.99108458  0.18515083     1.51690
Co460      Co  0.45647072  0.00492769  0.15955482     1.51570
Co461      Co  0.06434739  0.53806225  0.22865792     1.51470
O462        O  0.99706702  0.51196117  0.20737677    -1.42160
C463        C  0.04992110  0.61733796  0.23807507     1.09390
C464        C  0.52462584  0.01445145  0.10470383     1.09480
C465        C  0.44099768  0.57595447  0.19541021     1.09420
C466        C  0.14222421  0.57735493  0.19842622     1.09390
C467        C  0.09055668  0.70109352  0.20419874    -0.21400
C468        C  0.07390337  0.67101333  0.23888970    -0.09440
C469        C  0.09087026  0.69222836  0.27434008     0.29420
C470        C  0.12318270  0.74235041  0.27533202    -0.21400
C471        C  0.13552742  0.77502272  0.24161039    -0.09450
C472        C  0.12138806  0.75263981  0.20546648     0.29430
F473        F  0.13721908  0.78049330  0.17159797    -0.19970
H474        H  0.08035718  0.68447069  0.17616262     0.17790
H475        H  0.13906520  0.75446163  0.30346178     0.17800
F476        F  0.08003994  0.66386098  0.30791047    -0.19960
C477        C  0.07525486  0.87278989  0.21129077    -0.21400
C478        C  0.09712505  0.91949565  0.22706806    -0.09440
C479        C  0.14229564  0.93857708  0.24422946     0.29420
C480        C  0.16667266  0.91286225  0.24328602    -0.21400
C481        C  0.14387283  0.86352128  0.23062636    -0.09450
C482        C  0.09708090  0.84413763  0.21418158     0.29430
F483        F  0.07068345  0.79746817  0.20229259    -0.19970
H484        H  0.04057684  0.85811678  0.19707499     0.17790
H485        H  0.20225325  0.92984995  0.25635006     0.17800
F486        F  0.16340577  0.48268351  0.26129076    -0.19960
C487        C  0.24141101  0.89522500  0.20253993    -0.21400
C488        C  0.21845016  0.85180936  0.22668048    -0.09440
C489        C  0.24792876  0.83283438  0.24028746     0.29420
C490        C  0.29900603  0.86294331  0.23886537    -0.21400
C491        C  0.32159894  0.90988258  0.22001397    -0.09450
C492        C  0.29204391  0.92457984  0.20026257     0.29430
F493        F  0.31194135  0.46947602  0.18112137    -0.19970
H494        H  0.22083072  0.90934165  0.18790412     0.17790
H495        H  0.32043815  0.85027106  0.25404199     0.17800
F496        F  0.22800377  0.78902652  0.26090535    -0.19960
C497        C  0.06024233  0.71163201  0.42887368    -0.21400
C498        C  0.08141281  0.68638696  0.41386264    -0.09440
C499        C  0.13144023  0.71307557  0.40514638     0.29420
C500        C  0.15975245  0.76346858  0.41163259    -0.21400
C501        C  0.13905618  0.79085083  0.42464443    -0.09450
C502        C  0.08798557  0.76298915  0.43369327     0.29430
F503        F  0.06311384  0.78474004  0.44432369    -0.19970
H504        H  0.02193071  0.69155526  0.43682142     0.17790
H505        H  0.19762283  0.78232990  0.40231296     0.17800
F506        F  0.15289605  0.69027257  0.38915734    -0.19960
C507        C  0.10795451  0.90503898  0.47234145    -0.21400
C508        C  0.09899182  0.93174982  0.44290900    -0.09440
C509        C  0.11212723  0.93130216  0.40453180     0.29420
C510        C  0.13392675  0.90492034  0.39567185    -0.21400
C511        C  0.14160776  0.87577648  0.42440615    -0.09450
C512        C  0.12969532  0.87797276  0.46333140     0.29430
F513        F  0.13921387  0.85401816  0.49255008    -0.19970
H514        H  0.09905079  0.90589387  0.50257391     0.17790
H515        H  0.14740055  0.91071233  0.36600514     0.17800
F516        F  0.10717386  0.95912276  0.37571110    -0.19960
C517        C  0.24173755  0.85648521  0.45316033    -0.21400
C518        C  0.22007890  0.87854529  0.43129748    -0.09440
C519        C  0.25041199  0.92966654  0.41997915     0.29360
C520        C  0.30062755  0.95441714  0.42528616    -0.21400
C521        C  0.32243097  0.92996142  0.44223927    -0.09450
C522        C  0.29240474  0.88145909  0.45750894     0.29430
F523        F  0.31195906  0.85716302  0.47512205    -0.19970
H524        H  0.22035241  0.81896642  0.46498858     0.17790
H525        H  0.32286334  0.99260999  0.41484818     0.17800
F526        F  0.23312440  0.95457938  0.39921800    -0.19960
C527        C  0.21511866  0.86496590  0.30843706    -0.21400
C528        C  0.17076372  0.84176077  0.28876105    -0.09440
C529        C  0.12720474  0.82599549  0.31017326     0.29420
C530        C  0.12789482  0.82706547  0.34981344    -0.21400
C531        C  0.17206657  0.84811923  0.36989659    -0.09450
C532        C  0.21574737  0.86456803  0.34843452     0.29430
F533        F  0.25874110  0.87644436  0.36496202    -0.19970
H534        H  0.25007665  0.88268618  0.29382376     0.17790
H535        H  0.09338947  0.81257096  0.36516983     0.17800
F536        F  0.08309348  0.80504259  0.29295763    -0.19960
C537        C  0.21568553  0.65720596  0.17770907    -0.21400
C538        C  0.19371974  0.60685334  0.18680431    -0.09440
C539        C  0.22289883  0.58624962  0.19268899     0.29420
C540        C  0.27352077  0.61564695  0.19068159    -0.21400
C541        C  0.29719582  0.66692766  0.18145507    -0.09450
C542        C  0.26638622  0.68661912  0.17367463     0.29430
F543        F  0.28467671  0.73367034  0.15956050    -0.19970
H544        H  0.19352978  0.67374228  0.17336518     0.17790
H545        H  0.29324314  0.59650694  0.19300580     0.17800
F546        F  0.20219386  0.53689299  0.19904888    -0.19960
C547        C  0.42963003  0.78055398  0.16284430    -0.21400
C548        C  0.38302201  0.74968820  0.18068014    -0.09440
C549        C  0.36545331  0.77301675  0.20417791     0.29420
C550        C  0.38577380  0.82438400  0.19982281    -0.21400
C551        C  0.42510457  0.85323313  0.17393045    -0.09450
C552        C  0.44929646  0.83142654  0.15809781     0.29430
F553        F  0.49101568  0.85914633  0.13662504    -0.19970
H554        H  0.44770155  0.76533023  0.14748983     0.17790
H555        H  0.37163402  0.84191172  0.21705200     0.17800
F556        F  0.32839516  0.74677396  0.23040616    -0.19960
C557        C  0.38014365  0.65020957  0.21402368    -0.21400
C558        C  0.38126758  0.67015734  0.17631291    -0.09440
C559        C  0.41240660  0.66746428  0.14806172     0.29420
C560        C  0.43288020  0.63846060  0.15521757    -0.21400
C561        C  0.42528714  0.61261728  0.19089940    -0.09450
C562        C  0.40062555  0.62065038  0.22110195     0.29430
F563        F  0.39495357  0.59892444  0.25720702    -0.19970
H564        H  0.36042571  0.65473479  0.23741342     0.17790
H565        H  0.45389106  0.63537136  0.13207633     0.17800
F566        F  0.42378771  0.69262943  0.11298905    -0.19960
C567        C  0.27022286  0.69095735  0.46479536    -0.21400
C568        C  0.29604728  0.66877703  0.48011906    -0.09440
C569        C  0.26854587  0.61623692  0.98421548     0.29420
C570        C  0.21776678  0.59031334  0.98260195    -0.21400
C571        C  0.19297087  0.61508294  0.47442424    -0.09450
C572        C  0.21962652  0.66533237  0.46427315     0.29430
F573        F  0.19674486  0.68963641  0.45294200    -0.19970
H574        H  0.28808818  0.72849071  0.45317480     0.17790
H575        H  0.19790703  0.55031497  0.98524536     0.17800
F576        F  0.28978337  0.58868255  0.98480091    -0.19960
C577        C  0.34809566  0.78142843  0.99992894    -0.21400
C578        C  0.37011302  0.75690601  0.48271924    -0.09440
C579        C  0.41453314  0.78714879  0.46229262     0.29420
C580        C  0.43855328  0.83843600  0.46452167    -0.21400
C581        C  0.42032166  0.86132195  0.48811221    -0.09450
C582        C  0.37491997  0.83192246  0.00613050     0.29430
F583        F  0.35788208  0.85095691  0.03206676    -0.19970
H584        H  0.31384099  0.76008676  0.01598383     0.17790
H585        H  0.47310771  0.86009334  0.44895649     0.17800
F586        F  0.43610371  0.76807704  0.44120606    -0.19960
C587        C  0.44331604  0.65814596  0.99927133    -0.21400
C588        C  0.42723563  0.62468420  0.46953564    -0.09440
C589        C  0.39449609  0.62579756  0.44222717     0.29420
C590        C  0.37381546  0.65483306  0.44786468    -0.21400
C591        C  0.38369088  0.68218898  0.48144597    -0.09450
C592        C  0.42336525  0.68791049  0.00432242     0.29430
F593        F  0.44218428  0.72117104  0.03251368    -0.19970
H594        H  0.47096331  0.66088309  0.01906635     0.17790
H595        H  0.34706949  0.65276256  0.42739431     0.17800
F596        F  0.37989526  0.59664742  0.41116991    -0.19960
C597        C  0.32462397  0.65122834  0.10354368    -0.21400
C598        C  0.34381758  0.69579668  0.12291792    -0.09440
C599        C  0.35928715  0.73894000  0.10003108     0.29420
C600        C  0.37121104  0.73971180  0.06202483    -0.21400
C601        C  0.34801877  0.69661646  0.04051294    -0.09450
C602        C  0.32718190  0.65147937  0.06306993     0.29430
F603        F  0.31718419  0.60874190  0.04809915    -0.19970
H604        H  0.31201127  0.61661735  0.11990371     0.17790
H605        H  0.39824107  0.77551984  0.04987417     0.17800
F606        F  0.36459458  0.78098022  0.11356527    -0.19960
C607        C  0.34979966  0.70094929  0.49489632    -0.02580
C608        C  0.35137166  0.69587257  0.66701898    -0.02580
C609        C  0.16821192  0.84808890  0.91421309    -0.02580
C610        C  0.16693755  0.83239675  0.74507217    -0.02580
O611        O  0.39083372  0.98088608  0.97892765    -0.80230
O612        O  0.06461595  0.48310873  0.92765282    -0.80250
O613        O  0.48608401  0.49841538  0.87333270    -0.80260
O614        O  0.48720582  0.93711719  0.97082211    -0.80200
O615        O  0.06224831  0.55410176  0.87345535    -0.80320
O616        O  0.43901969  0.94020184  0.01453216    -0.80240
O617        O  0.08146868  0.97356077  0.98841405    -0.80230
O618        O  0.40486468  0.46553276  0.91993312    -0.80270
C619        C  0.37563745  0.95837007  0.94771927     1.09460
C620        C  0.08130757  0.96424404  0.95319125     1.09350
C621        C  0.02562018  0.52330919  0.85437377     1.09480
C622        C  0.44953172  0.91563638  0.99167882     1.09360
O623        O  0.51012810  0.04287201  0.54259574    -0.80230
O624        O  0.07436281  0.61395281  0.93922971    -0.80310
O625        O  0.43444587  0.56492633  0.93610888    -0.80240
O626        O  0.10629123  0.56753408  0.98851721    -0.80220
O627        O  0.13353313  0.57870426  0.92759651    -0.80270
O628        O  0.46313503  0.57886500  0.99597124    -0.80240
O629        O  0.03042957  0.98841099  0.53941082    -0.80200
O630        O  0.01947729  0.60336394  0.89552767    -0.80270
Co631      Co  0.45492945  0.01207880  0.00529119     1.51530
Co632      Co  0.06566052  0.54900913  0.93373777     1.51690
Co633      Co  0.46407570  0.53189352  0.90901185     1.51570
Co634      Co  0.04219152  0.00117256  0.98017264     1.51470
O635        O  0.99834321  0.52402142  0.95709327    -1.42160
C636        C  0.52310164  0.01592990  0.56033435     1.09390
C637        C  0.05598433  0.63165645  0.91639657     1.09480
C638        C  0.44356640  0.58835409  0.96709130     1.09420
C639        C  0.14224829  0.58624175  0.96337710     1.09390
O640        O  0.40286423  0.44939969  0.74687583    -0.80230
O641        O  0.08062499  0.96311838  0.67957261    -0.80250
O642        O  0.44193005  0.93448877  0.65067249    -0.80260
O643        O  0.06182896  0.54681700  0.78781909    -0.80200
O644        O  0.48602531  0.92597926  0.69642896    -0.80320
O645        O  0.48690670  0.48822357  0.79357774    -0.80240
O646        O  0.06472839  0.47247460  0.74019500    -0.80230
O647        O  0.39227235  0.96973939  0.68675856    -0.80270
C648        C  0.37536195  0.94349847  0.71802523     1.09460
C649        C  0.08024116  0.95312806  0.71558599     1.09350
C650        C  0.45085785  0.90728116  0.67397296     1.09480
C651        C  0.02577767  0.51828349  0.81021127     1.09360
O652        O  0.01471732  0.58844646  0.76175341    -0.80230
O653        O  0.03157213  0.98449568  0.62548520    -0.80310
O654        O  0.46377152  0.57019283  0.66792354    -0.80240
O655        O  0.13230045  0.56910341  0.73439202    -0.80220
O656        O  0.10681268  0.55852340  0.67389473    -0.80270
O657        O  0.42811541  0.54806438  0.72598398    -0.80240
O658        O  0.06983910  0.60136322  0.71660769    -0.80200
O659        O  0.51335922  0.04067054  0.62307408    -0.80270
Co660      Co  0.46083555  0.51711523  0.75450337     1.51530
Co661      Co  0.04180840  0.99109063  0.68514813     1.51690
Co662      Co  0.45646918  0.00493500  0.65955488     1.51570
Co663      Co  0.06434542  0.53806495  0.72865648     1.51470
O664        O  0.99706512  0.51196616  0.70737613    -1.42160
C665        C  0.04992040  0.61734091  0.73807652     1.09390
C666        C  0.52462338  0.01446144  0.60470274     1.09480
C667        C  0.44099650  0.57596116  0.69541231     1.09420
C668        C  0.14222239  0.57735945  0.69842478     1.09390
C669        C  0.09055186  0.70109510  0.70419830    -0.21400
C670        C  0.07390210  0.67101628  0.73889016    -0.09440
C671        C  0.09087356  0.69223272  0.77433934     0.29420
C672        C  0.12318653  0.74235484  0.77532927    -0.21400
C673        C  0.13552680  0.77502603  0.74160733    -0.09450
C674        C  0.12138384  0.75264155  0.70546427     0.29430
F675        F  0.13721187  0.78049358  0.67159493    -0.19970
H676        H  0.08034936  0.68447103  0.67616279     0.17790
H677        H  0.13907313  0.75446729  0.80345767     0.17800
F678        F  0.08004739  0.66386660  0.80791004    -0.19960
C679        C  0.07525297  0.87279317  0.71128597    -0.21400
C680        C  0.09712346  0.91949933  0.72706246    -0.09440
C681        C  0.14229371  0.93858065  0.74422439     0.29420
C682        C  0.16667038  0.91286545  0.74328194    -0.21400
C683        C  0.14387059  0.86352431  0.73062270    -0.09450
C684        C  0.09707851  0.84414044  0.71417803     0.29430
F685        F  0.07068036  0.79747045  0.70229031    -0.19970
H686        H  0.04057487  0.85811982  0.69707034     0.17790
H687        H  0.20225094  0.92985343  0.75634602     0.17800
F688        F  0.16340252  0.48268672  0.76128630    -0.19960
C689        C  0.24140948  0.89522966  0.70253619    -0.21400
C690        C  0.21844860  0.85181322  0.72667575    -0.09440
C691        C  0.24792761  0.83283883  0.74028304     0.29420
C692        C  0.29900466  0.86294876  0.73886245    -0.21400
C693        C  0.32159738  0.90988856  0.72001213    -0.09450
C694        C  0.29204237  0.92458565  0.70026039     0.29430
F695        F  0.31193961  0.46948408  0.68112229    -0.19970
H696        H  0.22082901  0.90934615  0.68790033     0.17790
H697        H  0.32043686  0.85027671  0.75403977     0.17800
F698        F  0.22800297  0.78903020  0.76089971    -0.19960
C699        C  0.06023913  0.71161399  0.92887628    -0.21400
C700        C  0.08140381  0.68636699  0.91385819    -0.09440
C701        C  0.13142843  0.71305412  0.90513154     0.29420
C702        C  0.15974382  0.76344754  0.91161475    -0.21400
C703        C  0.13905362  0.79083154  0.92463601    -0.09450
C704        C  0.08798530  0.76297162  0.93369357     0.29430
F705        F  0.06311798  0.78472407  0.94433159    -0.19970
H706        H  0.02192989  0.69153826  0.93683187     0.17790
H707        H  0.19761147  0.78230745  0.90228746     0.17800
F708        F  0.15287843  0.69024871  0.88913680    -0.19960
C709        C  0.10796211  0.90502715  0.97234274    -0.21400
C710        C  0.09900183  0.93174081  0.94291097    -0.09440
C711        C  0.11213700  0.93129362  0.90453384     0.29420
C712        C  0.13393321  0.90490925  0.89567304    -0.21400
C713        C  0.14161077  0.87576117  0.92440606    -0.09450
C714        C  0.12969947  0.87795769  0.96333164     0.29430
F715        F  0.13921625  0.85400074  0.99254954    -0.19970
H716        H  0.09905875  0.90588196  0.00257531     0.17790
H717        H  0.14740859  0.91070402  0.86600664     0.17800
F718        F  0.10718722  0.95911755  0.87571395    -0.19960
C719        C  0.24174035  0.85645007  0.95314422    -0.21400
C720        C  0.22007959  0.87852066  0.93129753    -0.09440
C721        C  0.25041245  0.92964663  0.91999374     0.29360
C722        C  0.30062751  0.95439595  0.92530300    -0.21400
C723        C  0.32243258  0.92993235  0.94223821    -0.09450
C724        C  0.29240813  0.88142021  0.95748825     0.29430
F725        F  0.31196446  0.85711047  0.97507444    -0.19970
H726        H  0.22035712  0.81892580  0.96496089     0.17790
H727        H  0.32286222  0.99259436  0.91487848     0.17800
F728        F  0.23312568  0.95456917  0.89924543    -0.19960
C729        C  0.21511977  0.86497220  0.80843166    -0.21400
C730        C  0.17076401  0.84176525  0.78875673    -0.09440
C731        C  0.12720544  0.82599647  0.81017028     0.29420
C732        C  0.12789612  0.82705722  0.84981089    -0.21400
C733        C  0.17206855  0.84810956  0.86989348    -0.09450
C734        C  0.21575011  0.86456917  0.84842938     0.29430
F735        F  0.25874677  0.87645186  0.86495417    -0.19970
H736        H  0.25007711  0.88269751  0.79381676     0.17790
H737        H  0.09339072  0.81255768  0.86516851     0.17800
F738        F  0.08309382  0.80504518  0.79295532    -0.19960
C739        C  0.21568353  0.65721211  0.67771065    -0.21400
C740        C  0.19371800  0.60685900  0.68680358    -0.09440
C741        C  0.22289737  0.58625557  0.69268780     0.29420
C742        C  0.27351924  0.61565348  0.69068190    -0.21400
C743        C  0.29719412  0.66693458  0.68145702    -0.09450
C744        C  0.26638430  0.68662603  0.67367754     0.29430
F745        F  0.28467455  0.73367786  0.65956513    -0.19970
H746        H  0.19352751  0.67374824  0.67336749     0.17790
H747        H  0.29324182  0.59651365  0.69300563     0.17800
F748        F  0.20219277  0.53689871  0.69904584    -0.19960
C749        C  0.42962895  0.78056015  0.66284606    -0.21400
C750        C  0.38302122  0.74969493  0.68068249    -0.09440
C751        C  0.36545287  0.77302437  0.70417955     0.29420
C752        C  0.38577292  0.82439140  0.69982261    -0.21400
C753        C  0.42510254  0.85323962  0.67392910    -0.09450
C754        C  0.44929468  0.83143250  0.65809758     0.29430
F755        F  0.49101310  0.85915145  0.63662372    -0.19970
H756        H  0.44770019  0.76533544  0.64749183     0.17790
H757        H  0.37163337  0.84192036  0.71705189     0.17800
F758        F  0.32839527  0.74678242  0.73040839    -0.19960
C759        C  0.38014196  0.65021636  0.71402503    -0.21400
C760        C  0.38126484  0.67016318  0.67631399    -0.09440
C761        C  0.41240205  0.66746824  0.64806227     0.29420
C762        C  0.43287590  0.63846475  0.65521843    -0.21400
C763        C  0.42528467  0.61262310  0.69090098    -0.09450
C764        C  0.40062392  0.62065718  0.72110355     0.29430
F765        F  0.39495311  0.59893248  0.75720897    -0.19970
H766        H  0.36042495  0.65474257  0.73741496     0.17790
H767        H  0.45388590  0.63537465  0.63207694     0.17800
F768        F  0.42378227  0.69263248  0.61298924    -0.19960
C769        C  0.27023425  0.69094252  0.96478049    -0.21400
C770        C  0.29605142  0.66876108  0.98011776    -0.09440
C771        C  0.26854764  0.61625183  0.48420658     0.29420
C772        C  0.21776852  0.59032263  0.48259146    -0.21400
C773        C  0.19297549  0.61507709  0.97442099    -0.09450
C774        C  0.21963791  0.66532277  0.96425505     0.29430
F775        F  0.19676301  0.68962778  0.95290656    -0.19970
H776        H  0.28810611  0.72847312  0.95315229     0.17790
H777        H  0.19791351  0.55032394  0.48522575     0.17800
F778        F  0.28979104  0.58870296  0.48478860    -0.19960
C779        C  0.34809083  0.78144582  0.49993839    -0.21400
C780        C  0.37012090  0.75688818  0.98271571    -0.09440
C781        C  0.41454739  0.78713078  0.96229719     0.29420
C782        C  0.43856971  0.83841773  0.96452980    -0.21400
C783        C  0.42033240  0.86130350  0.98811445    -0.09450
C784        C  0.37491541  0.83194024  0.50613762     0.29430
F785        F  0.35788753  0.85097333  0.53208383    -0.19970
H786        H  0.31384045  0.76010392  0.51599902     0.17790
H787        H  0.47312926  0.86007495  0.94897166     0.17800
F788        F  0.43612254  0.76805893  0.94121641    -0.19960
C789        C  0.44331774  0.65817092  0.49927305    -0.21400
C790        C  0.42723044  0.62465664  0.96953559    -0.09440
C791        C  0.39448853  0.62576789  0.94222877     0.29420
C792        C  0.37380989  0.65480508  0.94786601    -0.21400
C793        C  0.38369075  0.68216598  0.98144503    -0.09450
C794        C  0.42336481  0.68793356  0.50432447     0.29430
F795        F  0.44218171  0.72119253  0.53251689    -0.19970
H796        H  0.47096375  0.66090734  0.51906917     0.17790
H797        H  0.34706238  0.65273332  0.92739676     0.17800
F798        F  0.37988415  0.59661475  0.91117330    -0.19960
C799        C  0.32461998  0.65123877  0.60354375    -0.21400
C800        C  0.34381587  0.69580607  0.62291972    -0.09440
C801        C  0.35928530  0.73895054  0.60003439     0.29420
C802        C  0.37120893  0.73972429  0.56202785    -0.21400
C803        C  0.34801374  0.69663056  0.54051438    -0.09450
C804        C  0.32717416  0.65149179  0.56306959     0.29430
F805        F  0.31716593  0.60875259  0.54809581    -0.19970
H806        H  0.31200584  0.61662657  0.61990230     0.17790
H807        H  0.39823941  0.77553262  0.54987770     0.17800
F808        F  0.36459135  0.78098949  0.61357002    -0.19960
C809        C  0.84979750  0.20093213  0.99489557    -0.02580
C810        C  0.85136641  0.19586495  0.16701782    -0.02580
C811        C  0.66821688  0.34810720  0.41421534    -0.02580
C812        C  0.66694459  0.33239285  0.24507603    -0.02580
O813        O  0.89083958  0.48091271  0.47892909    -0.80230
O814        O  0.56459756  0.98311499  0.42765096    -0.80250
O815        O  0.98607580  0.99843641  0.37333131    -0.80260
O816        O  0.98720329  0.43713364  0.47082031    -0.80200
O817        O  0.56224322  0.05411357  0.37345493    -0.80320
O818        O  0.93902132  0.44022341  0.51453173    -0.80240
O819        O  0.58146545  0.47357097  0.48841259    -0.80230
O820        O  0.90485645  0.96556513  0.41992910    -0.80270
C821        C  0.87564166  0.45839717  0.44772073     1.09460
C822        C  0.58130540  0.46425544  0.45318965     1.09350
C823        C  0.52561391  0.02332241  0.35437369     1.09480
C824        C  0.94952941  0.41565572  0.49167753     1.09360
O825        O  0.01013678  0.54285747  0.04259517    -0.80230
O826        O  0.57436570  0.11396809  0.43922917    -0.80310
O827        O  0.93445097  0.06496062  0.43610656    -0.80240
O828        O  0.60628018  0.06754189  0.48851827    -0.80220
O829        O  0.63352482  0.07870512  0.42759911    -0.80270
O830        O  0.96313221  0.07888975  0.49597193    -0.80240
O831        O  0.53044556  0.48840175  0.03941367    -0.80200
O832        O  0.51948285  0.10338900  0.39552764    -0.80270
Co833      Co  0.95493578  0.51210177  0.50529147     1.51530
Co834      Co  0.56565254  0.04901993  0.43373724     1.51690
Co835      Co  0.96407412  0.03192147  0.40900988     1.51570
Co836      Co  0.54219187  0.50118675  0.48017149     1.51470
O837        O  0.49833599  0.02404234  0.45709204    -1.42160
C838        C  0.02311328  0.51591910  0.06033559     1.09390
C839        C  0.55599104  0.13167707  0.41639737     1.09480
C840        C  0.94356779  0.08838368  0.46709118     1.09420
C841        C  0.64223849  0.08624412  0.46337977     1.09390
O842        O  0.90286077  0.94939585  0.24687712    -0.80230
O843        O  0.58063365  0.46311373  0.17957688    -0.80250
O844        O  0.94193876  0.43448268  0.15067372    -0.80260
O845        O  0.56182495  0.04681861  0.28781950    -0.80200
O846        O  0.98603286  0.42597270  0.19643123    -0.80320
O847        O  0.98690321  0.98822532  0.29357950    -0.80240
O848        O  0.56472390  0.97247137  0.24019909    -0.80230
O849        O  0.89227997  0.46973223  0.18675870    -0.80270
C850        C  0.87536956  0.44349144  0.21802560     1.09460
C851        C  0.58025060  0.45312569  0.21559058     1.09350
C852        C  0.95086561  0.40727493  0.17397472     1.09480
C853        C  0.52577326  0.01828836  0.31021239     1.09360
O854        O  0.51471200  0.08844495  0.26175035    -0.80230
O855        O  0.53158165  0.48448801  0.12548822    -0.80310
O856        O  0.96376617  0.07018501  0.16792101    -0.80240
O857        O  0.63229583  0.06910047  0.23439353    -0.80220
O858        O  0.60680815  0.05851695  0.17389621    -0.80270
O859        O  0.92810934  0.04805768  0.22598115    -0.80240
O860        O  0.56983448  0.10135925  0.21660601    -0.80200
O861        O  0.01336754  0.54066236  0.12307353    -0.80270
Co862      Co  0.96083097  0.01711254  0.25450265     1.51530
Co863      Co  0.54181617  0.49108465  0.18515089     1.51690
Co864      Co  0.95647740  0.50492851  0.15955499     1.51570
Co865      Co  0.56434087  0.03806145  0.22865763     1.51470
O866        O  0.49706068  0.01196121  0.20737658    -1.42160
C867        C  0.54991682  0.11733845  0.23807445     1.09390
C868        C  0.02463310  0.51445276  0.10470407     1.09480
C869        C  0.94099117  0.07595404  0.19540944     1.09420
C870        C  0.64221781  0.07735474  0.19842625     1.09390
C871        C  0.59055750  0.20109412  0.20419836    -0.21400
C872        C  0.57390187  0.17101406  0.23888933    -0.09440
C873        C  0.59087022  0.19222857  0.27433972     0.29420
C874        C  0.62318577  0.24235007  0.27533161    -0.21400
C875        C  0.63553220  0.27502266  0.24161000    -0.09450
C876        C  0.62139214  0.25263995  0.20546609     0.29430
F877        F  0.63722485  0.28049329  0.17159759    -0.19970
H878        H  0.58035724  0.18447144  0.17616222     0.17790
H879        H  0.63906864  0.25446074  0.30346136     0.17800
F880        F  0.58003796  0.16386090  0.30791010    -0.19960
C881        C  0.57526190  0.37279120  0.21129041    -0.21400
C882        C  0.59713249  0.41949689  0.22706775    -0.09440
C883        C  0.64230326  0.43857808  0.24422888     0.29420
C884        C  0.66667984  0.41286276  0.24328540    -0.21400
C885        C  0.64387941  0.36352173  0.23062585    -0.09450
C886        C  0.59708754  0.34413862  0.21418101     0.29430
F887        F  0.57068958  0.29746933  0.20229180    -0.19970
H888        H  0.54058384  0.35811839  0.19707468     0.17790
H889        H  0.70226045  0.42985006  0.25634938     0.17800
F890        F  0.66339764  0.98268239  0.26129154    -0.19960
C891        C  0.74141667  0.39522338  0.20253865    -0.21400
C892        C  0.71845586  0.35180851  0.22668006    -0.09440
C893        C  0.74793434  0.33283360  0.24028741     0.29420
C894        C  0.79901160  0.36294278  0.23886562    -0.21400
C895        C  0.82160474  0.40988145  0.22001307    -0.09450
C896        C  0.79204960  0.42457794  0.20026075     0.29430
F897        F  0.81193575  0.96947870  0.18112442    -0.19970
H898        H  0.72083630  0.40933976  0.18790245     0.17790
H899        H  0.82044370  0.35027111  0.25404375     0.17800
F900        F  0.72800915  0.28902621  0.26090605    -0.19960
C901        C  0.56024416  0.21163504  0.42887244    -0.21400
C902        C  0.58141394  0.18638821  0.41386362    -0.09440
C903        C  0.63144216  0.21307497  0.40514993     0.29420
C904        C  0.65975555  0.26346806  0.41163575    -0.21400
C905        C  0.63906014  0.29085203  0.42464518    -0.09450
C906        C  0.58798890  0.26299215  0.43369199     0.29430
F907        F  0.56311812  0.28474494  0.44432012    -0.19970
H908        H  0.52193198  0.19155972  0.43681860     0.17790
H909        H  0.69762648  0.28232799  0.40231787     0.17800
F910        F  0.65289790  0.19026998  0.38916416    -0.19960
C911        C  0.60796332  0.40504231  0.47234126    -0.21400
C912        C  0.59900132  0.43175380  0.44290895    -0.09440
C913        C  0.61213728  0.43130671  0.40453175     0.29420
C914        C  0.63393576  0.40492391  0.39567157    -0.21400
C915        C  0.64161556  0.37577917  0.42440576    -0.09450
C916        C  0.62970335  0.37797551  0.46333105     0.29430
F917        F  0.63922086  0.35401988  0.49254958    -0.19970
H918        H  0.59905928  0.40589679  0.50257371     0.17790
H919        H  0.64740930  0.41071525  0.36600481     0.17800
F920        F  0.60718489  0.45912824  0.37571131    -0.19960
C921        C  0.74174133  0.35648610  0.45316320    -0.21400
C922        C  0.72008494  0.37854565  0.43129676    -0.09440
C923        C  0.75041979  0.42966581  0.41997579     0.29360
C924        C  0.80063516  0.45441513  0.42528337    -0.21400
C925        C  0.82243651  0.42995975  0.44224089    -0.09450
C926        C  0.79240820  0.38145924  0.45751380     0.29430
F927        F  0.81195995  0.35716417  0.47513267    -0.19970
H928        H  0.72035451  0.31896837  0.46499343     0.17790
H929        H  0.82287236  0.49260674  0.41484279     0.17800
F930        F  0.73313407  0.45457807  0.39921133    -0.19960
C931        C  0.71512422  0.36496386  0.30843718    -0.21400
C932        C  0.67076951  0.34176054  0.28876081    -0.09440
C933        C  0.62721064  0.32599655  0.31017285     0.29420
C934        C  0.62790051  0.32706700  0.34981305    -0.21400
C935        C  0.67207199  0.34811878  0.36989641    -0.09450
C936        C  0.71575241  0.36456478  0.34843465     0.29430
F937        F  0.75874500  0.37643732  0.36496253    -0.19970
H938        H  0.75008238  0.38268338  0.29382428     0.17790
H939        H  0.59339531  0.31257433  0.36516921     0.17800
F940        F  0.58309956  0.30504495  0.29295704    -0.19960
C941        C  0.71567933  0.15720675  0.17771057    -0.21400
C942        C  0.69371347  0.10685387  0.18680507    -0.09440
C943        C  0.72289261  0.08625047  0.19269099     0.29420
C944        C  0.77351445  0.11564796  0.19068477    -0.21400
C945        C  0.79718956  0.16692850  0.18145742    -0.09450
C946        C  0.76638018  0.18662020  0.17367706     0.29430
F947        F  0.78467118  0.23367161  0.15956310    -0.19970
H948        H  0.69352353  0.17374298  0.17336638     0.17790
H949        H  0.79323667  0.09650786  0.19300984     0.17800
F950        F  0.70218773  0.03689384  0.19905095    -0.19960
C951        C  0.92962651  0.28055037  0.16284484    -0.21400
C952        C  0.88301783  0.24968742  0.18068054    -0.09440
C953        C  0.86545166  0.27301873  0.20417776     0.29420
C954        C  0.88577618  0.32438644  0.19982254    -0.21400
C955        C  0.92510802  0.35323336  0.17393079    -0.09450
C956        C  0.94929699  0.33142354  0.15809856     0.29430
F957        F  0.99101688  0.35914074  0.13662609    -0.19970
H958        H  0.94769586  0.26532397  0.14749023     0.17790
H959        H  0.87163820  0.34191697  0.21705178     0.17800
F960        F  0.82839264  0.24677829  0.23040571    -0.19960
C961        C  0.88013893  0.15021055  0.21402328    -0.21400
C962        C  0.88125899  0.17015486  0.17631191    -0.09440
C963        C  0.91239420  0.16745829  0.14805912     0.29420
C964        C  0.93286831  0.13845516  0.15521485    -0.21400
C965        C  0.92527963  0.11261587  0.19089802    -0.09450
C966        C  0.90062135  0.12065187  0.22110147     0.29430
F967        F  0.89495357  0.09892968  0.25720755    -0.19970
H968        H  0.86042396  0.15473849  0.23741389     0.17790
H969        H  0.95387656  0.13536359  0.13207267     0.17800
F970        F  0.92377292  0.19262126  0.11298567    -0.19960
C971        C  0.77021368  0.19095898  0.46480366    -0.21400
C972        C  0.79604158  0.16877821  0.48011876    -0.09440
C973        C  0.76854296  0.11623743  0.98420747     0.29420
C974        C  0.71776389  0.09031091  0.98259327    -0.21400
C975        C  0.69296484  0.11507951  0.47442496    -0.09450
C976        C  0.71961718  0.16533125  0.46428254     0.29430
F977        F  0.69673212  0.18963508  0.45296068    -0.19970
H978        H  0.78807589  0.22849425  0.45318830     0.17790
H979        H  0.69790678  0.05031231  0.98523058     0.17800
F980        F  0.78978382  0.08868609  0.98479129    -0.19960
C981        C  0.84809646  0.28143304  0.99993178    -0.21400
C982        C  0.87010917  0.25690706  0.48272002    -0.09440
C983        C  0.91452885  0.28714748  0.46229190     0.29420
C984        C  0.93855271  0.33843491  0.46452108    -0.21400
C985        C  0.92032551  0.36132319  0.48811342    -0.09450
C986        C  0.87492530  0.33192666  0.00613395     0.29430
F987        F  0.85789329  0.35096312  0.03207351    -0.19970
H988        H  0.81384285  0.26009389  0.01598849     0.17790
H989        H  0.97310640  0.36009043  0.44895457     0.17800
F990        F  0.93609536  0.26807315  0.44120343    -0.19960
C991        C  0.94330771  0.15814349  0.99927517    -0.21400
C992        C  0.92723187  0.12468651  0.46953637    -0.09440
C993        C  0.89449665  0.12580475  0.44222579     0.29420
C994        C  0.87381541  0.15483963  0.44786420    -0.21400
C995        C  0.88368516  0.18218914  0.48144867    -0.09450
C996        C  0.92335615  0.18790703  0.00432742     0.29430
F997        F  0.94217307  0.22116437  0.03252096    -0.19970
H998        H  0.97095215  0.16087744  0.01907196     0.17790
H999        H  0.84707278  0.15277311  0.42739197     0.17800
F1000       F  0.87990060  0.09665998  0.41116532    -0.19960
C1001       C  0.82460966  0.15122789  0.10354459    -0.21400
C1002       C  0.84380885  0.19579681  0.12291881    -0.09440
C1003       C  0.85928220  0.23894076  0.10003194     0.29420
C1004       C  0.87120644  0.23971107  0.06202599    -0.21400
C1005       C  0.84800957  0.19661608  0.04051385    -0.09450
C1006       C  0.82716533  0.15147830  0.06307074     0.29430
F1007       F  0.81715401  0.10873682  0.04809950    -0.19970
H1008       H  0.81199274  0.11661608  0.11990452     0.17790
H1009       H  0.89824002  0.27551770  0.04987540     0.17800
F1010       F  0.86459360  0.28098270  0.11356599    -0.19960
C1011       C  0.84979344  0.20094982  0.49489733    -0.02580
C1012       C  0.85136503  0.19587216  0.66701967    -0.02580
C1013       C  0.66821815  0.34808981  0.91421290    -0.02580
C1014       C  0.66694301  0.33239650  0.74507189    -0.02580
O1015       O  0.89084009  0.48088470  0.97892961    -0.80230
O1016       O  0.56460695  0.98310545  0.92765263    -0.80250
O1017       O  0.98607876  0.99841737  0.87333203    -0.80260
O1018       O  0.98721394  0.43711679  0.97082405    -0.80200
O1019       O  0.56224362  0.05410129  0.87345536    -0.80320
O1020       O  0.93902835  0.44020352  0.01453377    -0.80240
O1021       O  0.58147792  0.47356383  0.98841436    -0.80230
O1022       O  0.90485898  0.96553644  0.91993036    -0.80270
C1023       C  0.87564339  0.45836733  0.94772178     1.09460
C1024       C  0.58131735  0.46424794  0.95319138     1.09350
C1025       C  0.52561513  0.02330998  0.85437347     1.09480
C1026       C  0.94953926  0.41563730  0.99168037     1.09360
O1027       O  0.01013553  0.54287375  0.54259574    -0.80230
O1028       O  0.57435973  0.11395193  0.93923021    -0.80310
O1029       O  0.93444260  0.06493029  0.93610770    -0.80240
O1030       O  0.60628445  0.06753206  0.98851779    -0.80220
O1031       O  0.63352695  0.07869941  0.92759758    -0.80270
O1032       O  0.96312849  0.07886490  0.99597122    -0.80240
O1033       O  0.53043715  0.48841263  0.53941138    -0.80200
O1034       O  0.51947535  0.10336672  0.89552819    -0.80270
Co1035     Co  0.95493687  0.51207945  0.00529208     1.51530
Co1036     Co  0.56565438  0.04900709  0.93373785     1.51690
Co1037     Co  0.96407161  0.03189663  0.90901085     1.51570
Co1038     Co  0.54219907  0.50117348  0.98017313     1.51470
O1039       O  0.49833708  0.02402217  0.95709280    -1.42160
C1040       C  0.02310897  0.51593167  0.56033460     1.09390
C1041       C  0.55598307  0.13165761  0.91639721     1.09480
C1042       C  0.94356180  0.08835618  0.96709100     1.09420
C1043       C  0.64224184  0.08623783  0.96337810     1.09390
O1044       O  0.90285880  0.94940088  0.74687597    -0.80230
O1045       O  0.58063148  0.46311913  0.67957235    -0.80250
O1046       O  0.94193604  0.43448970  0.65067238    -0.80260
O1047       O  0.56182363  0.04681726  0.78781868    -0.80200
O1048       O  0.98603143  0.42597908  0.69642824    -0.80320
O1049       O  0.98690129  0.98822455  0.79357749    -0.80240
O1050       O  0.56472168  0.97247356  0.74019523    -0.80230
O1051       O  0.89227816  0.46973975  0.68675861    -0.80270
C1052       C  0.87536750  0.44349794  0.71802490     1.09460
C1053       C  0.58024809  0.45312915  0.71558576     1.09350
C1054       C  0.95086347  0.40728161  0.67397261     1.09480
C1055       C  0.52577244  0.01828414  0.81021101     1.09360
O1056       O  0.51471284  0.08844753  0.76175268    -0.80230
O1057       O  0.53157840  0.48449645  0.62548535    -0.80310
O1058       O  0.96376523  0.07019222  0.66792261    -0.80240
O1059       O  0.63229414  0.06910227  0.73439199    -0.80220
O1060       O  0.60680699  0.05852314  0.67389454    -0.80270
O1061       O  0.92811026  0.04806516  0.72598354    -0.80240
O1062       O  0.56983359  0.10136241  0.71660673    -0.80200
O1063       O  0.01336556  0.54067161  0.62307441    -0.80270
Co1064     Co  0.96083038  0.01711630  0.75450302     1.51530
Co1065     Co  0.54181440  0.49109068  0.68514822     1.51690
Co1066     Co  0.95647535  0.50493584  0.65955514     1.51570
Co1067     Co  0.56433932  0.03806412  0.72865622     1.51470
O1068       O  0.49705920  0.01196607  0.70737589    -1.42160
C1069       C  0.54991629  0.11734125  0.73807578     1.09390
C1070       C  0.02462997  0.51446273  0.60470298     1.09480
C1071       C  0.94099047  0.07596092  0.69541137     1.09420
C1072       C  0.64221642  0.07735929  0.69842487     1.09390
C1073       C  0.59055276  0.20109558  0.70419781    -0.21400
C1074       C  0.57390057  0.17101685  0.73888964    -0.09440
C1075       C  0.59087310  0.19223276  0.77433888     0.29420
C1076       C  0.62318902  0.24235433  0.77532884    -0.21400
C1077       C  0.63553118  0.27502585  0.74160692    -0.09450
C1078       C  0.62138779  0.25264160  0.70546383     0.29430
F1079       F  0.63721774  0.28049351  0.67159453    -0.19970
H1080       H  0.58034977  0.18447168  0.67616226     0.17790
H1081       H  0.63907580  0.25446611  0.80345729     0.17800
F1082       F  0.58004486  0.16386634  0.80790959    -0.19960
C1083       C  0.57525987  0.37279455  0.71128513    -0.21400
C1084       C  0.59713037  0.41950040  0.72706208    -0.09440
C1085       C  0.64230039  0.43858123  0.74422439     0.29420
C1086       C  0.66667670  0.41286564  0.74328208    -0.21400
C1087       C  0.64387670  0.36352467  0.73062246    -0.09450
C1088       C  0.59708499  0.34414150  0.71417719     0.29430
F1089       F  0.57068671  0.29747192  0.70228872    -0.19970
H1090       H  0.54058206  0.35812173  0.69706904     0.17790
H1091       H  0.70225706  0.42985310  0.75634649     0.17800
F1092       F  0.66339633  0.98268639  0.76128565    -0.19960
C1093       C  0.74141489  0.39522885  0.70253549    -0.21400
C1094       C  0.71845388  0.35181250  0.72667517    -0.09440
C1095       C  0.74793268  0.33283777  0.74028214     0.29420
C1096       C  0.79900975  0.36294794  0.73886207    -0.21400
C1097       C  0.82160279  0.40988767  0.72001148    -0.09450
C1098       C  0.79204781  0.42458459  0.70025943     0.29430
F1099       F  0.81193375  0.96948429  0.68112225    -0.19970
H1100       H  0.72083448  0.40934550  0.68789966     0.17790
H1101       H  0.82044177  0.35027605  0.75404044     0.17800
F1102       F  0.72800773  0.28902906  0.76089877    -0.19960
C1103       C  0.56024112  0.21161735  0.92887476    -0.21400
C1104       C  0.58140532  0.18636845  0.91385947    -0.09440
C1105       C  0.63143095  0.21305362  0.90513618     0.29420
C1106       C  0.65974749  0.26344709  0.91161919    -0.21400
C1107       C  0.63905793  0.29083291  0.92463728    -0.09450
C1108       C  0.58798881  0.26297492  0.93369214     0.29430
F1109       F  0.56312239  0.28472946  0.94432725    -0.19970
H1110       H  0.52193114  0.19154314  0.93682820     0.17790
H1111       H  0.69761591  0.28230554  0.90229428     0.17800
F1112       F  0.65288115  0.19024615  0.88914529    -0.19960
C1113       C  0.60797176  0.40503101  0.97234246    -0.21400
C1114       C  0.59901246  0.43174552  0.94291081    -0.09440
C1115       C  0.61214840  0.43129900  0.90453372     0.29420
C1116       C  0.63394338  0.40491343  0.89567274    -0.21400
C1117       C  0.64161936  0.37576424  0.92440567    -0.09450
C1118       C  0.62970819  0.37796080  0.96333125     0.29430
F1119       F  0.63922358  0.35400257  0.99254902    -0.19970
H1120       H  0.59906794  0.40588532  0.00257500     0.17790
H1121       H  0.64741850  0.41070738  0.86600631     0.17800
F1122       F  0.60719989  0.45912407  0.87571410    -0.19960
C1123       C  0.74174402  0.35645177  0.95314851    -0.21400
C1124       C  0.72008617  0.37852123  0.93129659    -0.09440
C1125       C  0.75042125  0.42964561  0.91998880     0.29360
C1126       C  0.80063608  0.45439338  0.92529868    -0.21400
C1127       C  0.82243847  0.42993056  0.94224029    -0.09450
C1128       C  0.79241136  0.38142117  0.95749527     0.29430
F1129       F  0.81196442  0.35711332  0.97508996    -0.19970
H1130       H  0.72035859  0.31892908  0.96496821     0.17790
H1131       H  0.82287262  0.49258999  0.91487031     0.17800
F1132       F  0.73313679  0.45456699  0.89923578    -0.19960
C1133       C  0.71512518  0.36496889  0.80843192    -0.21400
C1134       C  0.67076964  0.34176469  0.78875659    -0.09440
C1135       C  0.62721129  0.32599753  0.81017007     0.29420
C1136       C  0.62790184  0.32705865  0.84981071    -0.21400
C1137       C  0.67207400  0.34810848  0.86989343    -0.09450
C1138       C  0.71575496  0.36456423  0.84842966     0.29430
F1139       F  0.75875010  0.37644168  0.86495488    -0.19970
H1140       H  0.75008269  0.38269290  0.79381750     0.17790
H1141       H  0.59339670  0.31256146  0.86516813     0.17800
F1142       F  0.58309984  0.30504807  0.79295496    -0.19960
C1143       C  0.71567786  0.15721324  0.67771308    -0.21400
C1144       C  0.69371216  0.10685966  0.68680437    -0.09440
C1145       C  0.72289148  0.08625632  0.69268903     0.29420
C1146       C  0.77351328  0.11565437  0.69068455    -0.21400
C1147       C  0.79718833  0.16693550  0.68145965    -0.09450
C1148       C  0.76637880  0.18662741  0.67368089     0.29430
F1149       F  0.78466955  0.23367966  0.65956923    -0.19970
H1150       H  0.69352186  0.17374944  0.67337020     0.17790
H1151       H  0.79323568  0.09651439  0.69300857     0.17800
F1152       F  0.70218688  0.03689930  0.69904604    -0.19960
C1153       C  0.92962549  0.28055693  0.66284585    -0.21400
C1154       C  0.88301752  0.24969433  0.68068276    -0.09440
C1155       C  0.86545214  0.27302631  0.70417994     0.29420
C1156       C  0.88577592  0.32439379  0.69982305    -0.21400
C1157       C  0.92510581  0.35323993  0.67392945    -0.09450
C1158       C  0.94929487  0.33142984  0.65809761     0.29430
F1159       F  0.99101348  0.35914641  0.63662352    -0.19970
H1160       H  0.94769437  0.26532979  0.64749102     0.17790
H1161       H  0.87163871  0.34192537  0.71705297     0.17800
F1162       F  0.82839429  0.24678650  0.73040897    -0.19960
C1163       C  0.88013747  0.15021724  0.71402458    -0.21400
C1164       C  0.88125674  0.17016092  0.67631302    -0.09440
C1165       C  0.91239030  0.16746271  0.64805973     0.29420
C1166       C  0.93286470  0.13845977  0.65521571    -0.21400
C1167       C  0.92527767  0.11262191  0.69089951    -0.09450
C1168       C  0.90062001  0.12065862  0.72110296     0.29430
F1169       F  0.89495320  0.09893742  0.75720932    -0.19970
H1170       H  0.86042321  0.15474591  0.73741535     0.17790
H1171       H  0.95387219  0.13536748  0.63207330     0.17800
F1172       F  0.92376803  0.19262475  0.61298592    -0.19960
C1173       C  0.77022410  0.19094424  0.96479007    -0.21400
C1174       C  0.79604530  0.16876231  0.98011749    -0.09440
C1175       C  0.76854478  0.11625237  0.48419935     0.29420
C1176       C  0.71776570  0.09032058  0.48258357    -0.21400
C1177       C  0.69296893  0.11507310  0.97442213    -0.09450
C1178       C  0.71962759  0.16532141  0.96426604     0.29430
F1179       F  0.69674881  0.18962620  0.95292826    -0.19970
H1180       H  0.78809237  0.22847701  0.95316774     0.17790
H1181       H  0.69791302  0.05032168  0.48521248     0.17800
F1182       F  0.78979119  0.08870619  0.48478003    -0.19960
C1183       C  0.84809136  0.28145010  0.49994071    -0.21400
C1184       C  0.87011671  0.25688932  0.98271643    -0.09440
C1185       C  0.91454234  0.28712937  0.96229580     0.29420
C1186       C  0.93856865  0.33841658  0.96452845    -0.21400
C1187       C  0.92033655  0.36130484  0.98811553    -0.09450
C1188       C  0.87492004  0.33194414  0.50614054     0.29430
F1189       F  0.85789690  0.35097923  0.53208906    -0.19970
H1190       H  0.81384170  0.26011055  0.51600267     0.17790
H1191       H  0.97312712  0.36007185  0.94896848     0.17800
F1192       F  0.93611273  0.26805471  0.94121254    -0.19960
C1193       C  0.94330968  0.15816835  0.49927710    -0.21400
C1194       C  0.92722652  0.12465924  0.96953598    -0.09440
C1195       C  0.89448914  0.12577563  0.94222697     0.29420
C1196       C  0.87380987  0.15481220  0.94786517    -0.21400
C1197       C  0.88368480  0.18216633  0.98144755    -0.09450
C1198       C  0.92335598  0.18793003  0.50432962     0.29430
F1199       F  0.94217071  0.22118587  0.53252429    -0.19970
H1200       H  0.97095296  0.16090170  0.51907497     0.17790
H1201       H  0.84706584  0.15274462  0.92739401     0.17800
F1202       F  0.87988976  0.09662813  0.91116813    -0.19960
C1203       C  0.82460631  0.15123824  0.60354474    -0.21400
C1204       C  0.84380716  0.19580604  0.62292072    -0.09440
C1205       C  0.85927952  0.23895099  0.60003540     0.29420
C1206       C  0.87120364  0.23972357  0.56202915    -0.21400
C1207       C  0.84800473  0.19663019  0.54051539    -0.09450
C1208       C  0.82715850  0.15149076  0.56307048     0.29430
F1209       F  0.81713817  0.10874800  0.54809630    -0.19970
H1210       H  0.81198858  0.11662531  0.61990316     0.17790
H1211       H  0.89823734  0.27553069  0.54987921     0.17800
F1212       F  0.86458900  0.28099139  0.61357103    -0.19960
C1213       C  0.84980400  0.70093150  0.99489470    -0.02580
C1214       C  0.85137341  0.69586545  0.16701724    -0.02580
C1215       C  0.66821107  0.84810629  0.41421563    -0.02580
C1216       C  0.66693877  0.83239300  0.24507636    -0.02580
O1217       O  0.89083368  0.98091387  0.47892754    -0.80230
O1218       O  0.56460574  0.48311787  0.42765128    -0.80250
O1219       O  0.98608103  0.49843468  0.37333184    -0.80260
O1220       O  0.98719597  0.93713403  0.47081842    -0.80200
O1221       O  0.56224788  0.55411402  0.37345499    -0.80320
O1222       O  0.93901353  0.94022185  0.51453021    -0.80240
O1223       O  0.58145728  0.97356853  0.48841224    -0.80230
O1224       O  0.90486193  0.46556174  0.41993132    -0.80270
C1225       C  0.87563608  0.95839969  0.44771865     1.09460
C1226       C  0.58129668  0.96425218  0.45318947     1.09350
C1227       C  0.52561898  0.52332170  0.35437398     1.09480
C1228       C  0.94952260  0.91565490  0.49167597     1.09360
O1229       O  0.01012841  0.04285556  0.04259508    -0.80230
O1230       O  0.57436876  0.61396889  0.43922876    -0.80310
O1231       O  0.93445410  0.56495699  0.43610736    -0.80240
O1232       O  0.60628637  0.56754360  0.48851792    -0.80220
O1233       O  0.63353062  0.57870936  0.42759837    -0.80270
O1234       O  0.96313827  0.57888991  0.49597169    -0.80240
O1235       O  0.53043703  0.98839974  0.03941323    -0.80200
O1236       O  0.51948493  0.60338655  0.39552717    -0.80270
Co1237     Co  0.95492905  0.01210115  0.50529071     1.51530
Co1238     Co  0.56565829  0.54902175  0.43373726     1.51690
Co1239     Co  0.96407816  0.53191868  0.40901064     1.51570
Co1240     Co  0.54218507  0.00118606  0.48017105     1.51470
O1241       O  0.49834171  0.52404170  0.45709245    -1.42160
C1242       C  0.02310509  0.01591720  0.06033524     1.09390
C1243       C  0.55599246  0.63167607  0.41639684     1.09480
C1244       C  0.94357213  0.58838183  0.46709115     1.09420
C1245       C  0.64224445  0.58624749  0.46337911     1.09390
O1246       O  0.90286655  0.44939467  0.24687666    -0.80230
O1247       O  0.58062678  0.96311296  0.17957718    -0.80250
O1248       O  0.94193230  0.93448175  0.15067383    -0.80260
O1249       O  0.56183054  0.54681829  0.28781994    -0.80200
O1250       O  0.98602625  0.92597302  0.19643201    -0.80320
O1251       O  0.98690884  0.48822442  0.29357964    -0.80240
O1252       O  0.56473114  0.47247241  0.24019889    -0.80230
O1253       O  0.89227370  0.96973189  0.18675875    -0.80270
C1254       C  0.87536363  0.94349207  0.21802607     1.09460
C1255       C  0.58024325  0.95312450  0.21559084     1.09350
C1256       C  0.95085956  0.90727454  0.17397509     1.09480
C1257       C  0.52577868  0.51828767  0.31021265     1.09360
O1258       O  0.51471667  0.58844369  0.26175097    -0.80230
O1259       O  0.53157481  0.98448707  0.12548819    -0.80310
O1260       O  0.96377308  0.57018592  0.16792182    -0.80240
O1261       O  0.63230257  0.56910168  0.23439365    -0.80220
O1262       O  0.60681430  0.55851715  0.17389647    -0.80270
O1263       O  0.92811477  0.54805690  0.22598132    -0.80240
O1264       O  0.56984031  0.60135998  0.21660696    -0.80200
O1265       O  0.01336055  0.04066129  0.12307312    -0.80270
Co1266     Co  0.96083638  0.51711147  0.25450279     1.51530
Co1267     Co  0.54180976  0.99108456  0.18515092     1.51690
Co1268     Co  0.95647070  0.00492768  0.15955474     1.51570
Co1269     Co  0.56434738  0.53806224  0.22865792     1.51470
O1270       O  0.49706702  0.51196117  0.20737676    -1.42160
C1271       C  0.54992109  0.61733795  0.23807508     1.09390
C1272       C  0.02462581  0.01445145  0.10470373     1.09480
C1273       C  0.94099768  0.57595447  0.19541022     1.09420
C1274       C  0.64222422  0.57735492  0.19842625     1.09390
C1275       C  0.59055666  0.70109351  0.20419874    -0.21400
C1276       C  0.57390336  0.67101332  0.23888970    -0.09440
C1277       C  0.59087029  0.69222834  0.27434009     0.29420
C1278       C  0.62318273  0.74235039  0.27533201    -0.21400
C1279       C  0.63552743  0.77502271  0.24161040    -0.09450
C1280       C  0.62138804  0.75263981  0.20546648     0.29430
F1281       F  0.63721904  0.78049330  0.17159797    -0.19970
H1282       H  0.58035714  0.68447069  0.17616263     0.17790
H1283       H  0.63906525  0.75446162  0.30346177     0.17800
F1284       F  0.58003998  0.66386096  0.30791046    -0.19960
C1285       C  0.57525484  0.87278988  0.21129086    -0.21400
C1286       C  0.59712505  0.91949563  0.22706814    -0.09440
C1287       C  0.64229565  0.93857706  0.24422952     0.29420
C1288       C  0.66667267  0.91286224  0.24328606    -0.21400
C1289       C  0.64387283  0.86352127  0.23062639    -0.09450
C1290       C  0.59708089  0.84413762  0.21418164     0.29430
F1291       F  0.57068343  0.79746816  0.20229264    -0.19970
H1292       H  0.54057681  0.85811676  0.19707510     0.17790
H1293       H  0.70225327  0.92984994  0.25635008     0.17800
F1294       F  0.66340577  0.48268352  0.26129074    -0.19960
C1295       C  0.74141100  0.89522499  0.20253993    -0.21400
C1296       C  0.71845016  0.85180936  0.22668048    -0.09440
C1297       C  0.74792877  0.83283438  0.24028745     0.29420
C1298       C  0.79900604  0.86294330  0.23886534    -0.21400
C1299       C  0.82159894  0.90988257  0.22001392    -0.09450
C1300       C  0.79204390  0.92457983  0.20026254     0.29430
F1301       F  0.81194135  0.46947606  0.18112142    -0.19970
H1302       H  0.72083070  0.90934164  0.18790413     0.17790
H1303       H  0.82043817  0.85027106  0.25404194     0.17800
F1304       F  0.72800380  0.78902652  0.26090535    -0.19960
C1305       C  0.56024234  0.71163198  0.42887371    -0.21400
C1306       C  0.58141282  0.68638694  0.41386265    -0.09440
C1307       C  0.63144024  0.71307556  0.40514638     0.29420
C1308       C  0.65975246  0.76346856  0.41163259    -0.21400
C1309       C  0.63905619  0.79085081  0.42464444    -0.09450
C1310       C  0.58798558  0.76298913  0.43369329     0.29430
F1311       F  0.56311385  0.78474001  0.44432373    -0.19970
H1312       H  0.52193073  0.69155524  0.43682146     0.17790
H1313       H  0.69762283  0.78232988  0.40231294     0.17800
F1314       F  0.65289605  0.69027255  0.38915733    -0.19960
C1315       C  0.60795453  0.90503895  0.47234150    -0.21400
C1316       C  0.59899181  0.93174978  0.44290905    -0.09440
C1317       C  0.61212718  0.93130210  0.40453184     0.29420
C1318       C  0.63392669  0.90492028  0.39567187    -0.21400
C1319       C  0.64160774  0.87577644  0.42440617    -0.09450
C1320       C  0.62969533  0.87797273  0.46333143     0.29430
F1321       F  0.63921391  0.85401815  0.49255010    -0.19970
H1322       H  0.59905083  0.90589385  0.50257396     0.17790
H1323       H  0.64740047  0.91071226  0.36600516     0.17800
F1324       F  0.60717378  0.95912269  0.37571115    -0.19960
C1325       C  0.74173758  0.85648521  0.45316030    -0.21400
C1326       C  0.72007890  0.87854529  0.43129748    -0.09440
C1327       C  0.75041196  0.92966654  0.41997917     0.29360
C1328       C  0.80062753  0.95441716  0.42528615    -0.21400
C1329       C  0.82243098  0.92996145  0.44223922    -0.09450
C1330       C  0.79240478  0.88145910  0.45750886     0.29430
F1331       F  0.81195914  0.85716303  0.47512192    -0.19970
H1332       H  0.72035247  0.81896641  0.46498853     0.17790
H1333       H  0.82286329  0.99261002  0.41484819     0.17800
F1334       F  0.73312434  0.95457938  0.39921805    -0.19960
C1335       C  0.71511866  0.86496588  0.30843707    -0.21400
C1336       C  0.67076372  0.84176075  0.28876107    -0.09440
C1337       C  0.62720474  0.82599545  0.31017327     0.29420
C1338       C  0.62789482  0.82706544  0.34981345    -0.21400
C1339       C  0.67206658  0.84811922  0.36989660    -0.09450
C1340       C  0.71574738  0.86456803  0.34843453     0.29430
F1341       F  0.75874111  0.87644438  0.36496203    -0.19970
H1342       H  0.75007665  0.88268616  0.29382377     0.17790
H1343       H  0.59338947  0.81257092  0.36516985     0.17800
F1344       F  0.58309348  0.80504253  0.29295765    -0.19960
C1345       C  0.71568555  0.65720598  0.17770922    -0.21400
C1346       C  0.69371975  0.60685334  0.18680436    -0.09440
C1347       C  0.72289883  0.58624961  0.19268898     0.29420
C1348       C  0.77352077  0.61564694  0.19068160    -0.21400
C1349       C  0.79719583  0.66692767  0.18145517    -0.09450
C1350       C  0.76638623  0.68661915  0.17367481     0.29430
F1351       F  0.78467671  0.73367040  0.15956077    -0.19970
H1352       H  0.69352980  0.67374231  0.17336538     0.17790
H1353       H  0.79324314  0.59650692  0.19300577     0.17800
F1354       F  0.70219386  0.53689296  0.19904880    -0.19960
C1355       C  0.92963000  0.78055399  0.16284420    -0.21400
C1356       C  0.88302204  0.74968822  0.18068014    -0.09440
C1357       C  0.86545342  0.77301678  0.20417798     0.29420
C1358       C  0.88577390  0.82438403  0.19982287    -0.21400
C1359       C  0.92510456  0.85323314  0.17393041    -0.09450
C1360       C  0.94929640  0.83142655  0.15809769     0.29430
F1361       F  0.99101556  0.85914632  0.13662485    -0.19970
H1362       H  0.94770147  0.76533024  0.14748968     0.17790
H1363       H  0.87163419  0.84191177  0.21705213     0.17800
F1364       F  0.82839535  0.74677400  0.23040630    -0.19960
C1365       C  0.88014366  0.65020957  0.21402371    -0.21400
C1366       C  0.88126759  0.67015735  0.17631294    -0.09440
C1367       C  0.91240660  0.66746430  0.14806175     0.29420
C1368       C  0.93288020  0.63846062  0.15521759    -0.21400
C1369       C  0.92528715  0.61261729  0.19089941    -0.09450
C1370       C  0.90062556  0.62065038  0.22110197     0.29430
F1371       F  0.89495359  0.59892443  0.25720703    -0.19970
H1372       H  0.86042572  0.65473478  0.23741346     0.17790
H1373       H  0.95389106  0.63537138  0.13207634     0.17800
F1374       F  0.92378767  0.69262943  0.11298908    -0.19960
C1375       C  0.77022286  0.69095737  0.46479538    -0.21400
C1376       C  0.79604729  0.66877706  0.48011905    -0.09440
C1377       C  0.76854569  0.61623696  0.98421577     0.29420
C1378       C  0.71776661  0.59031353  0.98260226    -0.21400
C1379       C  0.69297088  0.61508293  0.47442424    -0.09450
C1380       C  0.71962651  0.66533236  0.46427316     0.29430
F1381       F  0.69674483  0.68963639  0.45294202    -0.19970
H1382       H  0.78808815  0.72849072  0.45317483     0.17790
H1383       H  0.69790673  0.55031517  0.98524595     0.17800
F1384       F  0.78978303  0.58868244  0.98480128    -0.19960
C1385       C  0.84809559  0.78142841  0.99992868    -0.21400
C1386       C  0.87011303  0.75690605  0.48271920    -0.09440
C1387       C  0.91453313  0.78714883  0.46229255     0.29420
C1388       C  0.93855327  0.83843604  0.46452160    -0.21400
C1389       C  0.92032166  0.86132200  0.48811215    -0.09450
C1390       C  0.87491983  0.83192246  0.00613021     0.29430
F1391       F  0.85788139  0.85095708  0.03206584    -0.19970
H1392       H  0.81384075  0.76008676  0.01598334     0.17790
H1393       H  0.97310769  0.86009338  0.44895639     0.17800
F1394       F  0.93610370  0.76807708  0.44120599    -0.19960
C1395       C  0.94331603  0.65814597  0.99927143    -0.21400
C1396       C  0.92723564  0.62468423  0.46953560    -0.09440
C1397       C  0.89449608  0.62579758  0.44222713     0.29420
C1398       C  0.87381547  0.65483309  0.44786464    -0.21400
C1399       C  0.88369091  0.68218903  0.48144592    -0.09450
C1400       C  0.92336517  0.68791044  0.00432252     0.29430
F1401       F  0.94218415  0.72117101  0.03251377    -0.19970
H1402       H  0.97096335  0.66088318  0.01906642     0.17790
H1403       H  0.84706948  0.65276257  0.42739427     0.17800
F1404       F  0.87989522  0.59664741  0.41116989    -0.19960
C1405       C  0.82462400  0.65122833  0.10354373    -0.21400
C1406       C  0.84381750  0.69579665  0.12291798    -0.09440
C1407       C  0.85928684  0.73893994  0.10003116     0.29420
C1408       C  0.87121065  0.73971182  0.06202488    -0.21400
C1409       C  0.84801865  0.69661647  0.04051300    -0.09450
C1410       C  0.82718199  0.65147940  0.06306999     0.29430
F1411       F  0.81718471  0.60874205  0.04809923    -0.19970
H1412       H  0.81201145  0.61661737  0.11990376     0.17790
H1413       H  0.89824059  0.77551992  0.04987426     0.17800
F1414       F  0.86459422  0.78098012  0.11356542    -0.19960
C1415       C  0.84979969  0.70094933  0.49489629    -0.02580
C1416       C  0.85137165  0.69587268  0.66701895    -0.02580
C1417       C  0.66821187  0.84808891  0.91421303    -0.02580
C1418       C  0.66693765  0.83239670  0.74507214    -0.02580
O1419       O  0.89083370  0.98088607  0.97892745    -0.80230
O1420       O  0.56461605  0.48310887  0.92765280    -0.80250
O1421       O  0.98608407  0.49841551  0.87333271    -0.80260
O1422       O  0.98720582  0.93711716  0.97082202    -0.80200
O1423       O  0.56224821  0.55410174  0.87345532    -0.80320
O1424       O  0.93901966  0.94020182  0.01453205    -0.80240
O1425       O  0.58146865  0.97356074  0.98841418    -0.80230
O1426       O  0.90486474  0.46553294  0.91993309    -0.80270
C1427       C  0.87563744  0.95836996  0.94771911     1.09460
C1428       C  0.58130750  0.96424399  0.95319138     1.09350
C1429       C  0.52562011  0.52330909  0.85437377     1.09480
C1430       C  0.94953174  0.91563636  0.99167876     1.09360
O1431       O  0.01012813  0.04287210  0.54259563    -0.80230
O1432       O  0.57436261  0.61395283  0.93922965    -0.80310
O1433       O  0.93444602  0.56492647  0.93610893    -0.80240
O1434       O  0.60629125  0.56753424  0.98851713    -0.80220
O1435       O  0.63353309  0.57870449  0.92759640    -0.80270
O1436       O  0.96313508  0.57886503  0.99597132    -0.80240
O1437       O  0.53042958  0.98841092  0.53941090    -0.80200
O1438       O  0.51947710  0.60336378  0.89552755    -0.80270
Co1439     Co  0.95492942  0.01207877  0.00529104     1.51530
Co1440     Co  0.56566048  0.54900921  0.93373773     1.51690
Co1441     Co  0.96407582  0.53189367  0.90901188     1.51570
Co1442     Co  0.54219153  0.00117257  0.98017276     1.51470
O1443       O  0.49834317  0.52402138  0.95709324    -1.42160
C1444       C  0.02310166  0.01592999  0.56033425     1.09390
C1445       C  0.55598409  0.63165637  0.91639644     1.09480
C1446       C  0.94356648  0.58835416  0.96709139     1.09420
C1447       C  0.64224828  0.58624199  0.96337698     1.09390
O1448       O  0.90286423  0.44939974  0.74687582    -0.80230
O1449       O  0.58062518  0.96311845  0.67957267    -0.80250
O1450       O  0.94192997  0.93448894  0.65067234    -0.80260
O1451       O  0.56182895  0.54681688  0.78781911    -0.80200
O1452       O  0.98602513  0.92597934  0.69642885    -0.80320
O1453       O  0.98690672  0.48822369  0.79357774    -0.80240
O1454       O  0.56472836  0.47247450  0.74019501    -0.80230
O1455       O  0.89227236  0.96973963  0.68675841    -0.80270
C1456       C  0.87536197  0.94349860  0.71802503     1.09460
C1457       C  0.58024137  0.95312811  0.71558605     1.09350
C1458       C  0.95085769  0.90728128  0.67397282     1.09480
C1459       C  0.52577764  0.51828338  0.81021128     1.09360
O1460       O  0.51471736  0.58844640  0.76175347    -0.80230
O1461       O  0.53157218  0.98449560  0.62548529    -0.80310
O1462       O  0.96377148  0.57019289  0.66792353    -0.80240
O1463       O  0.63230046  0.56910330  0.73439203    -0.80220
O1464       O  0.60681265  0.55852331  0.67389474    -0.80270
O1465       O  0.92811535  0.54806442  0.72598396    -0.80240
O1466       O  0.56983913  0.60136315  0.71660775    -0.80200
O1467       O  0.01335927  0.04067069  0.62307396    -0.80270
Co1468     Co  0.96083553  0.51711529  0.75450335     1.51530
Co1469     Co  0.54180849  0.99109059  0.68514822     1.51690
Co1470     Co  0.95646920  0.00493520  0.65955474     1.51570
Co1471     Co  0.56434542  0.53806486  0.72865650     1.51470
O1472       O  0.49706513  0.51196609  0.70737615    -1.42160
C1473       C  0.54992047  0.61734085  0.73807660     1.09390
C1474       C  0.02462338  0.01446155  0.60470264     1.09480
C1475       C  0.94099646  0.57596122  0.69541230     1.09420
C1476       C  0.64222238  0.57735935  0.69842478     1.09390
C1477       C  0.59055183  0.70109503  0.70419839    -0.21400
C1478       C  0.57390221  0.67101623  0.73889026    -0.09440
C1479       C  0.59087383  0.69223270  0.77433942     0.29420
C1480       C  0.62318679  0.74235486  0.77532931    -0.21400
C1481       C  0.63552693  0.77502598  0.74160735    -0.09450
C1482       C  0.62138381  0.75264148  0.70546432     0.29430
F1483       F  0.63721167  0.78049349  0.67159496    -0.19970
H1484       H  0.58034919  0.68447094  0.67616289     0.17790
H1485       H  0.63907348  0.75446739  0.80345767     0.17800
F1486       F  0.58004779  0.66386661  0.80791011    -0.19960
C1487       C  0.57525299  0.87279309  0.71128618    -0.21400
C1488       C  0.59712372  0.91949939  0.72706247    -0.09440
C1489       C  0.64229418  0.93858080  0.74422405     0.29420
C1490       C  0.66667079  0.91286555  0.74328147    -0.21400
C1491       C  0.64387074  0.86352425  0.73062254    -0.09450
C1492       C  0.59707848  0.84414031  0.71417818     0.29430
F1493       F  0.57068009  0.79747018  0.70229080    -0.19970
H1494       H  0.54057473  0.85811968  0.69707079     0.17790
H1495       H  0.70225150  0.92985358  0.75634530     0.17800
F1496       F  0.66340241  0.48268656  0.76128639    -0.19960
C1497       C  0.74140936  0.89522896  0.70253566    -0.21400
C1498       C  0.71844869  0.85181302  0.72667578    -0.09440
C1499       C  0.74792784  0.83283900  0.74028352     0.29420
C1500       C  0.79900486  0.86294903  0.73886277    -0.21400
C1501       C  0.82159742  0.90988847  0.72001186    -0.09450
C1502       C  0.79204224  0.92458501  0.70025965     0.29430
F1503       F  0.81193955  0.46948407  0.68112232    -0.19970
H1504       H  0.72082872  0.90934507  0.68789950     0.17790
H1505       H  0.82043725  0.85027735  0.75404043     0.17800
F1506       F  0.72800335  0.78903077  0.76090077    -0.19960
C1507       C  0.56023908  0.71161389  0.92887643    -0.21400
C1508       C  0.58140353  0.68636689  0.91385794    -0.09440
C1509       C  0.63142801  0.71305400  0.90513080     0.29420
C1510       C  0.65974349  0.76344743  0.91161388    -0.21400
C1511       C  0.63905352  0.79083144  0.92463566    -0.09450
C1512       C  0.58798533  0.76297152  0.93369368     0.29430
F1513       F  0.56311815  0.78472394  0.94433217    -0.19970
H1514       H  0.52192995  0.69153816  0.93683239     0.17790
H1515       H  0.69761099  0.78230733  0.90228617     0.17800
F1516       F  0.65287780  0.69024853  0.88913580    -0.19960
C1517       C  0.60796209  0.90502711  0.97234285    -0.21400
C1518       C  0.59900168  0.93174070  0.94291109    -0.09440
C1519       C  0.61213666  0.93129340  0.90453393     0.29420
C1520       C  0.63393287  0.90490906  0.89567309    -0.21400
C1521       C  0.64161060  0.87576105  0.92440609    -0.09450
C1522       C  0.62969944  0.87795765  0.96333169     0.29430
F1523       F  0.63921639  0.85400081  0.99254957    -0.19970
H1524       H  0.59905888  0.90588201  0.00257543     0.17790
H1525       H  0.64740821  0.91070389  0.86600667     0.17800
F1526       F  0.60718675  0.95911725  0.87571404    -0.19960
C1527       C  0.74174058  0.85644935  0.95314327    -0.21400
C1528       C  0.72007948  0.87852044  0.93129767    -0.09440
C1529       C  0.75041210  0.92964674  0.91999485     0.29360
C1530       C  0.80062717  0.95439618  0.92530417    -0.21400
C1531       C  0.82243256  0.92993220  0.94223808    -0.09450
C1532       C  0.79240842  0.88141942  0.95748686     0.29430
F1533       F  0.81196512  0.85710895  0.97507119    -0.19970
H1534       H  0.72035764  0.81892471  0.96495921     0.17790
H1535       H  0.82286167  0.99259497  0.91488055     0.17800
F1536       F  0.73312514  0.95456976  0.89924749    -0.19960
C1537       C  0.71511988  0.86497304  0.80843150    -0.21400
C1538       C  0.67076407  0.84176540  0.78875666    -0.09440
C1539       C  0.62720549  0.82599646  0.81017020     0.29420
C1540       C  0.62789621  0.82705733  0.84981079    -0.21400
C1541       C  0.67206867  0.84810999  0.86989338    -0.09450
C1542       C  0.71575035  0.86457032  0.84842923     0.29430
F1543       F  0.75874731  0.87645405  0.86495391    -0.19970
H1544       H  0.75007719  0.88269873  0.79381649     0.17790
H1545       H  0.59339078  0.81255750  0.86516844     0.17800
F1546       F  0.58309384  0.80504483  0.79295527    -0.19960
C1547       C  0.71568342  0.65721197  0.67771044    -0.21400
C1548       C  0.69371797  0.60685892  0.68680356    -0.09440
C1549       C  0.72289742  0.58625560  0.69268790     0.29420
C1550       C  0.77351927  0.61565356  0.69068195    -0.21400
C1551       C  0.79719408  0.66693462  0.68145692    -0.09450
C1552       C  0.76638419  0.68662595  0.67367729     0.29430
F1553       F  0.78467436  0.73367771  0.65956472    -0.19970
H1554       H  0.69352734  0.67374803  0.67336716     0.17790
H1555       H  0.79324190  0.59651378  0.69300577     0.17800
F1556       F  0.70219290  0.53689876  0.69904611    -0.19960
C1557       C  0.92962889  0.78056029  0.66284619    -0.21400
C1558       C  0.88302109  0.74969505  0.68068249    -0.09440
C1559       C  0.86545255  0.77302450  0.70417934     0.29420
C1560       C  0.88577255  0.82439151  0.69982230    -0.21400
C1561       C  0.92510234  0.85323975  0.67392895    -0.09450
C1562       C  0.94929460  0.83143262  0.65809763     0.29430
F1563       F  0.99101309  0.85915156  0.63662386    -0.19970
H1564       H  0.94770026  0.76533556  0.64749208     0.17790
H1565       H  0.87163273  0.84192053  0.71705148     0.17800
F1566       F  0.82839482  0.74678257  0.73040808    -0.19960
C1567       C  0.88014199  0.65021650  0.71402504    -0.21400
C1568       C  0.88126488  0.67016334  0.67631400    -0.09440
C1569       C  0.91240212  0.66746843  0.64806230     0.29420
C1570       C  0.93287594  0.63846489  0.65521845    -0.21400
C1571       C  0.92528466  0.61262319  0.69090098    -0.09450
C1572       C  0.90062391  0.62065728  0.72110355     0.29430
F1573       F  0.89495306  0.59893254  0.75720896    -0.19970
H1574       H  0.86042497  0.65474270  0.73741497     0.17790
H1575       H  0.95388596  0.63537481  0.63207697     0.17800
F1576       F  0.92378241  0.69263273  0.61298929    -0.19960
C1577       C  0.77023445  0.69094255  0.96478002    -0.21400
C1578       C  0.79605140  0.66876109  0.98011775    -0.09440
C1579       C  0.76854766  0.61625185  0.48420657     0.29420
C1580       C  0.71776855  0.59032264  0.48259146    -0.21400
C1581       C  0.69297549  0.61507737  0.97442084    -0.09450
C1582       C  0.71963811  0.66532293  0.96425441     0.29430
F1583       F  0.69676340  0.68962792  0.95290529    -0.19970
H1584       H  0.78810651  0.72847307  0.95315159     0.17790
H1585       H  0.69791355  0.55032394  0.48522575     0.17800
F1586       F  0.78979108  0.58870299  0.48478860    -0.19960
C1587       C  0.84809085  0.78144586  0.49993838    -0.21400
C1588       C  0.87012097  0.75688814  0.98271571    -0.09440
C1589       C  0.91454766  0.78713072  0.96229745     0.29420
C1590       C  0.93857003  0.83841766  0.96453011    -0.21400
C1591       C  0.92033249  0.86130345  0.98811448    -0.09450
C1592       C  0.87491543  0.83194029  0.50613759     0.29430
F1593       F  0.85788756  0.85097339  0.53208379    -0.19970
H1594       H  0.81384049  0.76010396  0.51599903     0.17790
H1595       H  0.97312975  0.86007485  0.94897221     0.17800
F1596       F  0.93612296  0.76805886  0.94121686    -0.19960
C1597       C  0.94331778  0.65817097  0.49927299    -0.21400
C1598       C  0.92723043  0.62465662  0.96953571    -0.09440
C1599       C  0.89448841  0.62576773  0.94222894     0.29420
C1600       C  0.87380969  0.65480484  0.94786618    -0.21400
C1601       C  0.88369063  0.68216585  0.98144515    -0.09450
C1602       C  0.92336485  0.68793362  0.50432440     0.29430
F1603       F  0.94218178  0.72119261  0.53251681    -0.19970
H1604       H  0.97096380  0.66090740  0.51906910     0.17790
H1605       H  0.84706214  0.65273300  0.92739695     0.17800
F1606       F  0.87988400  0.59661453  0.91117350    -0.19960
C1607       C  0.82462007  0.65123887  0.60354372    -0.21400
C1608       C  0.84381596  0.69580619  0.62291968    -0.09440
C1609       C  0.85928545  0.73895066  0.60003433     0.29420
C1610       C  0.87120907  0.73972437  0.56202779    -0.21400
C1611       C  0.84801382  0.69663063  0.54051435    -0.09450
C1612       C  0.82717424  0.65149187  0.56306956     0.29430
F1613       F  0.81716597  0.60875265  0.54809581    -0.19970
H1614       H  0.81200590  0.61662668  0.61990230     0.17790
H1615       H  0.89823954  0.77553268  0.54987761     0.17800
F1616       F  0.86459149  0.78098963  0.61356991    -0.19960
loop_ 
_geom_bond_atom_site_label_1 
_geom_bond_atom_site_label_2 
_geom_bond_distance 
_geom_bond_site_symmetry_2 
_ccdc_geom_bond_type 
C1          C197   1.565   1_556  S
C1          C366   1.577       .  S
C1          C376   1.576       .  S
C1          C389   1.561       .  S
C2          C137   1.558       .  S
C2          C144   1.560       .  S
C2          C154   1.568       .  S
C2          C194   1.532       .  S
C3           C97   1.577       .  S
C3          C107   1.554       .  S
C3          C114   1.556       .  S
C3          C127   1.527       .  S
C4           C67   1.568       .  S
C4           C77   1.570       .  S
C4           C84   1.559       .  S
C4          C124   1.533       .  S
O5           C13   1.263       .  A
O5          Co25   1.995       .  S
O6          C418   1.300       .  A
O6          Co26   2.088   1_565  S
O7          C823   1.259   1_565  A
O7          Co27   2.003   1_565  S
O8           C16   1.246       .  A
O8         Co836   1.920       .  S
O9           C15   1.275       .  A
O9          Co26   2.076       .  S
O10          C16   1.288       .  A
O10         Co25   2.069       .  S
O11          C14   1.256       .  A
O11         Co28   1.880       .  S
O12         C417   1.269       .  A
O12         Co27   1.996   1_565  S
C13         O416   1.269       .  A
C13         C117   1.477       .  S
C14         O410   1.300       .  A
C14         C104   1.462       .  S
C15         O815   1.259   1_445  A
C15          C45   1.532       .  S
C16         C177   1.485       .  S
O17          C30   1.260       .  A
O17        Co227   2.006       .  S
O18          C31   1.254       .  A
O18         Co26   1.944       .  S
O19          C32   1.268       .  A
O19         Co27   1.994       .  S
O20          C33   1.298       .  A
O20        Co432   2.076       .  S
O21          C33   1.264       .  A
O21         Co26   1.881       .  S
O22          C32   1.276       .  A
O22        Co429   2.002       .  S
O23         C838   1.263       .  A
O23        Co230   2.055   1_554  S
O24          C31   1.285       .  A
O24        Co835   2.064   1_455  S
Co25        O219   2.006       .  S
Co25        O426   2.002       .  S
Co25       O1241   2.060       .  S
Co26         O29   2.031   1_455  S
Co27        O832   2.064       .  S
Co27        O837   2.054       .  S
Co28        O816   1.920   1_455  S
Co28        O424   2.076       .  S
Co28        O225   2.055       .  S
Co28        O433   2.027   1_455  S
O29       Co1237   2.060       .  S
O29        Co835   2.054       .  S
O29        Co432   2.027   1_655  S
C30         O831   1.263       .  A
C30          C60   1.523       .  S
C31          C94   1.484       .  S
C32         C184   1.493       .  S
C33         C167   1.453       .  S
O34         C446   1.276       .  A
O34         Co54   2.013   1_565  S
O35          C43   1.261       .  A
O35         Co55   1.876       .  S
O36          C44   1.286       .  A
O36         Co56   2.066       .  S
O37          C45   1.271       .  A
O37         Co57   2.069       .  S
O38          C44   1.248       .  A
O38        Co863   1.932       .  S
O39         C853   1.265   1_565  A
O39         Co54   2.000   1_565  S
O40         C447   1.303       .  A
O40         Co57   2.102   1_565  S
O41          C42   1.265       .  A
O41         Co56   1.978       .  S
C42         O438   1.276       .  A
C42          C87   1.486       .  S
C43         O444   1.303       .  A
C43          C74   1.461       .  S
C44         C147   1.467       .  S
C45         O847   1.265   1_445  A
O46          C59   1.285       .  A
O46        Co862   2.041   1_455  S
O47         C868   1.271       .  A
O47         Co55   2.075       .  S
O48          C61   1.271       .  A
O48        Co460   1.989       .  S
O49          C62   1.259       .  A
O49         Co57   1.884       .  S
O50          C62   1.299       .  A
O50        Co459   2.097   1_545  S
O51          C61   1.265       .  A
O51         Co54   1.995       .  S
O52          C59   1.255       .  A
O52         Co57   1.944       .  S
O53          C60   1.254       .  A
O53         Co56   1.986       .  S
Co54        O854   2.041       .  S
Co54        O866   2.056       .  S
Co55        O846   1.932   1_455  S
Co55        O454   2.097       .  S
Co55        O462   2.026   1_455  S
Co56        O452   1.989       .  S
Co56       O1270   2.036       .  S
Co57         O58   2.015   1_455  S
O58        Co862   2.056       .  S
O58        Co459   2.026   1_645  S
O58       Co1268   2.036       .  S
C59          C64   1.461       .  S
C60         O855   1.271       .  A
C61         C157   1.486       .  S
C62         C134   1.463       .  S
C63          C64   1.412       .  A
C63          C68   1.408       .  A
C63          H70   1.083       .  S
C64          C65   1.384       .  A
C65          C66   1.379       .  A
C65          F72   1.359       .  S
C66          C67   1.430       .  A
C66          H71   1.079       .  S
C67          C68   1.409       .  A
C68          F69   1.357       .  S
C73          C74   1.403       .  A
C73          C78   1.402       .  A
C73          H80   1.082       .  S
C74          C75   1.388       .  A
C75          C76   1.389       .  A
C75         F486   1.358       .  S
C76          C77   1.429       .  A
C76          H81   1.083       .  S
C77          C78   1.420       .  A
C78          F79   1.351       .  S
F82         C479   1.358       .  S
C83          C84   1.408       .  A
C83          C88   1.394       .  A
C83          H90   1.080       .  S
C84          C85   1.423       .  A
C85          C86   1.406       .  A
C85          F92   1.356       .  S
C86          C87   1.401       .  A
C86          H91   1.080       .  S
C87          C88   1.411       .  A
C88         F493   1.359       .  S
F89         C492   1.359       .  S
C93          C94   1.401       .  A
C93          C98   1.411       .  A
C93         H100   1.081       .  S
C94          C95   1.400       .  A
C95          C96   1.398       .  A
C95         F102   1.358       .  S
C96          C97   1.421       .  A
C96         H101   1.082       .  S
C97          C98   1.430       .  A
C98          F99   1.353       .  S
C103        C104   1.411       .  A
C103        C108   1.398       .  A
C103        H110   1.083       .  S
C104        C105   1.388       .  A
C105        C106   1.379       .  A
C105        F112   1.359       .  S
C106        C107   1.427       .  A
C106        H111   1.079       .  S
C107        C108   1.406       .  A
C108        F109   1.358       .  S
C113        C114   1.407       .  A
C113        C118   1.402       .  A
C113        H120   1.080       .  S
C114        C115   1.429       .  A
C115        C116   1.395       .  A
C115        F122   1.354       .  S
C116        C117   1.393       .  A
C116        H121   1.084       .  S
C117        C118   1.404       .  A
C118        F119   1.342       .  S
C123        C124   1.404       .  A
C123        C128   1.373       .  A
C123        H130   1.074       .  S
C124        C125   1.413       .  A
C125        C126   1.363       .  A
C125        F132   1.358       .  S
C126        C127   1.407       .  A
C126        H131   1.083       .  S
C127        C128   1.414       .  A
C128        F129   1.355       .  S
C133        C134   1.391       .  A
C133        C138   1.399       .  A
C133        H140   1.084       .  S
C134        C135   1.398       .  A
C135        C136   1.393       .  A
C135        F142   1.353       .  S
C136        C137   1.414       .  A
C136        H141   1.078       .  S
C137        C138   1.432       .  A
C138        F139   1.355       .  S
C143        C144   1.419       .  A
C143        C148   1.396       .  A
C143        H150   1.076       .  S
C144        C145   1.413       .  A
C145        C146   1.406       .  A
C145        F152   1.356       .  S
C146        C147   1.402       .  A
C146        H151   1.074       .  S
C147        C148   1.400       .  A
C148        F149   1.358       .  S
C153        C154   1.408       .  A
C153        C158   1.406       .  A
C153        H160   1.083       .  S
C154        C155   1.431       .  A
C155        C156   1.390       .  A
C155        F162   1.356       .  S
C156        C157   1.393       .  A
C156        H161   1.083       .  S
C157        C158   1.415       .  A
C158        F159   1.357       .  S
C163        C164   1.420       .  A
C163        C168   1.390       .  A
C163        H170   1.076       .  S
C164        C203   1.577       .  S
C164        C367   1.425       .  A
C165        C166   1.396       .  A
C165        C366   1.425       .  A
C165        F172   1.354       .  S
C166        C369   1.394       .  A
C166        H171   1.084       .  S
C167        C168   1.391       .  A
C167        C368   1.394       .  A
C168        F169   1.354       .  S
C173        C178   1.396   1_556  A
C173        C376   1.435       .  A
C173        H180   1.084   1_556  S
C174        C203   1.576       .  S
C174        C175   1.408       .  A
C174        C375   1.435       .  A
C175        C176   1.398       .  A
C175        F182   1.356       .  S
C176        C177   1.419       .  A
C176        H181   1.083       .  S
C177        C380   1.389       .  A
C178        C379   1.389   1_554  A
C178        F179   1.358       .  S
C183        C188   1.401   1_556  A
C183        C386   1.399       .  A
C183        H190   1.083   1_556  S
C184        C185   1.416       .  A
C184        C385   1.399       .  A
C185        C186   1.402       .  A
C185        F192   1.357       .  S
C186        C187   1.407       .  A
C186        H191   1.083       .  S
C187        C203   1.561       .  S
C187        C390   1.424       .  A
C188        C389   1.424   1_554  A
C188        F189   1.355       .  S
C193        C194   1.412       .  A
C193        C198   1.392       .  A
C193        H200   1.082       .  S
C194        C195   1.393       .  A
C195        C196   1.357       .  A
C195        F202   1.355       .  S
C196        C197   1.412       .  A
C196        H201   1.077       .  S
C197        C198   1.419       .  A
C198        F199   1.345       .  S
C203        C399   1.565       .  S
C204        C339   1.558       .  S
C204        C346   1.560       .  S
C204        C356   1.568       .  S
C204        C396   1.532       .  S
C205        C299   1.577       .  S
C205        C309   1.554       .  S
C205        C316   1.556       .  S
C205        C329   1.527       .  S
C206        C269   1.568       .  S
C206        C279   1.570       .  S
C206        C286   1.559       .  S
C206        C326   1.533       .  S
O207        C215   1.263       .  A
O207       Co227   1.995   1_556  S
O208        C620   1.300       .  A
O208       Co228   2.088   1_565  S
O209       C1025   1.259   1_565  A
O209       Co229   2.003   1_565  S
O210        C218   1.246       .  A
O210      Co1038   1.920       .  S
O211        C217   1.275       .  A
O211       Co228   2.076       .  S
O212        C218   1.288   1_554  A
O212       Co227   2.069       .  S
O213        C216   1.256       .  A
O213       Co230   1.880       .  S
O214        C619   1.269       .  A
O214       Co229   1.996   1_565  S
C215        O618   1.269       .  A
C215        C319   1.477       .  S
C216        O612   1.300       .  A
C216        C306   1.462       .  S
C217       O1017   1.259   1_445  A
C217        C247   1.532       .  S
C218        C379   1.485       .  S
O219        C232   1.260       .  A
O220        C233   1.254       .  A
O220       Co228   1.944       .  S
O221        C234   1.268       .  A
O221       Co229   1.994       .  S
O222        C235   1.298       .  A
O222       Co634   2.076       .  S
O223        C235   1.264       .  A
O223       Co228   1.881       .  S
O224        C234   1.276       .  A
O224       Co631   2.002   1_556  S
O225       C1040   1.263       .  A
O226        C233   1.285       .  A
O226      Co1037   2.064   1_455  S
Co227       O628   2.002   1_554  S
Co227      O1443   2.060   1_554  S
Co228       O231   2.031   1_455  S
Co229      O1034   2.064       .  S
Co229      O1039   2.054       .  S
Co230      O1018   1.920   1_455  S
Co230       O626   2.076       .  S
Co230       O635   2.027   1_455  S
O231      Co1439   2.060   1_556  S
O231      Co1037   2.054       .  S
O231       Co634   2.027   1_655  S
C232       O1033   1.263       .  A
C232        C262   1.523       .  S
C233        C296   1.484       .  S
C234        C386   1.493       .  S
C235        C369   1.453       .  S
O236        C648   1.276       .  A
O236       Co256   2.013   1_565  S
O237        C245   1.261       .  A
O237       Co257   1.876       .  S
O238        C246   1.286       .  A
O238       Co258   2.066       .  S
O239        C247   1.271       .  A
O239       Co259   2.069       .  S
O240        C246   1.248       .  A
O240      Co1065   1.932       .  S
O241       C1055   1.265   1_565  A
O241       Co256   2.000   1_565  S
O242        C649   1.303       .  A
O242       Co259   2.102   1_565  S
O243        C244   1.265       .  A
O243       Co258   1.978       .  S
C244        O640   1.276       .  A
C244        C289   1.486       .  S
C245        O646   1.303       .  A
C245        C276   1.461       .  S
C246        C349   1.467       .  S
C247       O1049   1.265   1_445  A
O248        C261   1.285       .  A
O248      Co1064   2.041   1_455  S
O249       C1070   1.271       .  A
O249       Co257   2.075       .  S
O250        C263   1.271       .  A
O250       Co662   1.989       .  S
O251        C264   1.259       .  A
O251       Co259   1.884       .  S
O252        C264   1.299       .  A
O252       Co661   2.097   1_545  S
O253        C263   1.265       .  A
O253       Co256   1.995       .  S
O254        C261   1.255       .  A
O254       Co259   1.944       .  S
O255        C262   1.254       .  A
O255       Co258   1.986       .  S
Co256      O1056   2.041       .  S
Co256      O1068   2.056       .  S
Co257      O1048   1.932   1_455  S
Co257       O656   2.097       .  S
Co257       O664   2.026   1_455  S
Co258       O654   1.989       .  S
Co258      O1472   2.036       .  S
Co259       O260   2.015   1_455  S
O260      Co1064   2.056       .  S
O260       Co661   2.026   1_645  S
O260      Co1470   2.036       .  S
C261        C266   1.461       .  S
C262       O1057   1.271       .  A
C263        C359   1.486       .  S
C264        C336   1.463       .  S
C265        C266   1.412       .  A
C265        C270   1.408       .  A
C265        H272   1.083       .  S
C266        C267   1.384       .  A
C267        C268   1.379       .  A
C267        F274   1.359       .  S
C268        C269   1.430       .  A
C268        H273   1.079       .  S
C269        C270   1.409       .  A
C270        F271   1.357       .  S
C275        C276   1.403       .  A
C275        C280   1.402       .  A
C275        H282   1.082       .  S
C276        C277   1.388       .  A
C277        C278   1.389       .  A
C277        F688   1.358       .  S
C278        C279   1.429       .  A
C278        H283   1.083       .  S
C279        C280   1.420       .  A
C280        F281   1.351       .  S
F284        C681   1.358       .  S
C285        C286   1.408       .  A
C285        C290   1.394       .  A
C285        H292   1.080       .  S
C286        C287   1.423       .  A
C287        C288   1.406       .  A
C287        F294   1.356       .  S
C288        C289   1.401       .  A
C288        H293   1.080       .  S
C289        C290   1.411       .  A
C290        F695   1.359       .  S
F291        C694   1.359       .  S
C295        C296   1.401       .  A
C295        C300   1.411       .  A
C295        H302   1.081       .  S
C296        C297   1.400       .  A
C297        C298   1.398       .  A
C297        F304   1.358       .  S
C298        C299   1.421       .  A
C298        H303   1.082       .  S
C299        C300   1.430       .  A
C300        F301   1.353       .  S
C305        C306   1.411       .  A
C305        C310   1.398       .  A
C305        H312   1.083   1_556  S
C306        C307   1.388       .  A
C307        C308   1.379       .  A
C307        F314   1.359       .  S
C308        C309   1.427       .  A
C308        H313   1.079       .  S
C309        C310   1.406       .  A
C310        F311   1.358       .  S
C315        C316   1.407       .  A
C315        C320   1.402       .  A
C315        H322   1.080       .  S
C316        C317   1.429       .  A
C317        C318   1.395       .  A
C317        F324   1.354       .  S
C318        C319   1.393       .  A
C318        H323   1.084       .  S
C319        C320   1.404       .  A
C320        F321   1.342       .  S
C325        C326   1.404       .  A
C325        C330   1.373       .  A
C325        H332   1.074       .  S
C326        C327   1.413       .  A
C327        C328   1.363       .  A
C327        F334   1.358       .  S
C328        C329   1.407       .  A
C328        H333   1.083       .  S
C329        C330   1.414       .  A
C330        F331   1.355       .  S
C335        C336   1.391       .  A
C335        C340   1.399       .  A
C335        H342   1.084       .  S
C336        C337   1.398       .  A
C337        C338   1.393       .  A
C337        F344   1.353       .  S
C338        C339   1.414       .  A
C338        H343   1.078       .  S
C339        C340   1.432       .  A
C340        F341   1.355       .  S
C345        C346   1.419       .  A
C345        C350   1.396       .  A
C345        H352   1.076       .  S
C346        C347   1.413       .  A
C347        C348   1.406       .  A
C347        F354   1.356       .  S
C348        C349   1.402       .  A
C348        H353   1.074       .  S
C349        C350   1.400       .  A
C350        F351   1.358       .  S
C355        C356   1.408       .  A
C355        C360   1.406       .  A
C355        H362   1.083       .  S
C356        C357   1.431       .  A
C357        C358   1.390       .  A
C357        F364   1.356       .  S
C358        C359   1.393       .  A
C358        H363   1.083       .  S
C359        C360   1.415       .  A
C360        F361   1.357       .  S
C365        C366   1.420       .  A
C365        C370   1.390       .  A
C365        H372   1.076       .  S
C367        C368   1.396       .  A
C367        F374   1.354       .  S
C368        H373   1.084       .  S
C369        C370   1.391       .  A
C370        F371   1.354       .  S
C375        C380   1.396       .  A
C375        H382   1.084       .  S
C376        C377   1.408       .  A
C377        C378   1.398       .  A
C377        F384   1.356       .  S
C378        C379   1.419       .  A
C378        H383   1.083       .  S
C380        F381   1.358       .  S
C385        C390   1.401       .  A
C385        H392   1.083       .  S
C386        C387   1.416       .  A
C387        C388   1.402       .  A
C387        F394   1.357       .  S
C388        C389   1.407       .  A
C388        H393   1.083       .  S
C390        F391   1.355       .  S
C395        C396   1.412       .  A
C395        C400   1.392       .  A
C395        H402   1.082       .  S
C396        C397   1.393       .  A
C397        C398   1.357       .  A
C397        F404   1.355       .  S
C398        C399   1.412       .  A
C398        H403   1.077       .  S
C399        C400   1.419       .  A
C400        F401   1.345       .  S
C405        C770   1.577       .  S
C405        C780   1.576       .  S
C405        C793   1.561       .  S
C405        C601   1.565   1_556  S
C406        C541   1.558       .  S
C406        C548   1.560       .  S
C406        C558   1.568       .  S
C406        C598   1.532       .  S
C407        C501   1.577       .  S
C407        C511   1.554       .  S
C407        C518   1.556       .  S
C407        C531   1.527       .  S
C408        C471   1.568       .  S
C408        C481   1.570       .  S
C408        C488   1.559       .  S
C408        C528   1.533       .  S
O409        C417   1.263       .  A
O409       Co429   1.995   1_565  S
O410       Co430   2.088       .  S
O411       C1227   1.259       .  A
O411       Co431   2.003       .  S
O412        C420   1.246       .  A
O412      Co1240   1.920   1_565  S
O413        C419   1.275       .  A
O413       Co430   2.076       .  S
O414        C420   1.288       .  A
O414       Co429   2.069   1_565  S
O415        C418   1.256       .  A
O415       Co432   1.880   1_565  S
O416       Co431   1.996       .  S
C417        C521   1.477       .  S
C418        C508   1.462       .  S
C419       O1219   1.259   1_455  A
C419        C449   1.532       .  S
C420        C581   1.485       .  S
O421        C434   1.260       .  A
O421       Co631   2.006       .  S
O422        C435   1.254       .  A
O422       Co430   1.944       .  S
O423        C436   1.268       .  A
O423       Co431   1.994       .  S
O424        C437   1.298       .  A
O425        C437   1.264       .  A
O425       Co430   1.881       .  S
O426        C436   1.276       .  A
O427       C1242   1.263   1_565  A
O427       Co634   2.055   1_564  S
O428        C435   1.285       .  A
O428      Co1239   2.064   1_455  S
Co429       O623   2.006       .  S
Co429       O837   2.060       .  S
Co430       O433   2.031   1_455  S
Co431      O1236   2.064       .  S
Co431      O1241   2.054       .  S
Co432      O1220   1.920   1_445  S
Co432       O629   2.055   1_545  S
O433       Co833   2.060       .  S
O433      Co1239   2.054       .  S
C434       O1235   1.263   1_545  A
C434        C464   1.523       .  S
C435        C498   1.484       .  S
C436        C588   1.493       .  S
C437        C571   1.453       .  S
O438       Co458   2.013       .  S
O439        C447   1.261       .  A
O439       Co459   1.876       .  S
O440        C448   1.286       .  A
O440       Co460   2.066   1_565  S
O441        C449   1.271       .  A
O441       Co461   2.069       .  S
O442        C448   1.248       .  A
O442      Co1267   1.932       .  S
O443       C1257   1.265       .  A
O443       Co458   2.000       .  S
O444       Co461   2.102       .  S
O445        C446   1.265       .  A
O445       Co460   1.978   1_565  S
C446        C491   1.486       .  S
C447        C478   1.461       .  S
C448        C551   1.467       .  S
C449       O1251   1.265   1_455  A
O450        C463   1.285       .  A
O450      Co1266   2.041   1_455  S
O451       C1272   1.271   1_565  A
O451       Co459   2.075       .  S
O452        C465   1.271       .  A
O453        C466   1.259       .  A
O453       Co461   1.884       .  S
O454        C466   1.299       .  A
O455        C465   1.265       .  A
O455       Co458   1.995       .  S
O456        C463   1.255       .  A
O456       Co461   1.944       .  S
O457        C464   1.254       .  A
O457       Co460   1.986       .  S
Co458      O1258   2.041       .  S
Co458      O1270   2.056       .  S
Co459      O1250   1.932   1_455  S
Co460       O866   2.036       .  S
Co461       O462   2.015   1_455  S
O462      Co1266   2.056       .  S
O462       Co864   2.036       .  S
C463        C468   1.461       .  S
C464       O1259   1.271   1_545  A
C465        C561   1.486       .  S
C466        C538   1.463       .  S
C467        C468   1.412       .  A
C467        C472   1.408       .  A
C467        H474   1.083       .  S
C468        C469   1.384       .  A
C469        C470   1.379       .  A
C469        F476   1.359       .  S
C470        C471   1.430       .  A
C470        H475   1.079       .  S
C471        C472   1.409       .  A
C472        F473   1.357       .  S
C477        C478   1.403       .  A
C477        C482   1.402       .  A
C477        H484   1.082       .  S
C478        C479   1.388       .  A
C479        C480   1.389       .  A
C480        C481   1.429       .  A
C480        H485   1.083       .  S
C481        C482   1.420       .  A
C482        F483   1.351       .  S
C487        C488   1.408       .  A
C487        C492   1.394       .  A
C487        H494   1.080       .  S
C488        C489   1.423       .  A
C489        C490   1.406       .  A
C489        F496   1.356       .  S
C490        C491   1.401       .  A
C490        H495   1.080       .  S
C491        C492   1.411       .  A
C497        C498   1.401       .  A
C497        C502   1.411       .  A
C497        H504   1.081       .  S
C498        C499   1.400       .  A
C499        C500   1.398       .  A
C499        F506   1.358       .  S
C500        C501   1.421       .  A
C500        H505   1.082       .  S
C501        C502   1.430       .  A
C502        F503   1.353       .  S
C507        C508   1.411       .  A
C507        C512   1.398       .  A
C507        H514   1.083       .  S
C508        C509   1.388       .  A
C509        C510   1.379       .  A
C509        F516   1.359       .  S
C510        C511   1.427       .  A
C510        H515   1.079       .  S
C511        C512   1.406       .  A
C512        F513   1.358       .  S
C517        C518   1.407       .  A
C517        C522   1.402       .  A
C517        H524   1.080       .  S
C518        C519   1.429       .  A
C519        C520   1.395       .  A
C519        F526   1.354       .  S
C520        C521   1.393       .  A
C520        H525   1.084       .  S
C521        C522   1.404       .  A
C522        F523   1.342       .  S
C527        C528   1.404       .  A
C527        C532   1.373       .  A
C527        H534   1.074       .  S
C528        C529   1.413       .  A
C529        C530   1.363       .  A
C529        F536   1.358       .  S
C530        C531   1.407       .  A
C530        H535   1.083       .  S
C531        C532   1.414       .  A
C532        F533   1.355       .  S
C537        C538   1.391       .  A
C537        C542   1.399       .  A
C537        H544   1.084       .  S
C538        C539   1.398       .  A
C539        C540   1.393       .  A
C539        F546   1.353       .  S
C540        C541   1.414       .  A
C540        H545   1.078       .  S
C541        C542   1.432       .  A
C542        F543   1.355       .  S
C547        C548   1.419       .  A
C547        C552   1.396       .  A
C547        H554   1.076       .  S
C548        C549   1.413       .  A
C549        C550   1.406       .  A
C549        F556   1.356       .  S
C550        C551   1.402       .  A
C550        H555   1.074       .  S
C551        C552   1.400       .  A
C552        F553   1.358       .  S
C557        C558   1.408       .  A
C557        C562   1.406       .  A
C557        H564   1.083       .  S
C558        C559   1.431       .  A
C559        C560   1.390       .  A
C559        F566   1.356       .  S
C560        C561   1.393       .  A
C560        H565   1.083       .  S
C561        C562   1.415       .  A
C562        F563   1.357       .  S
C567        C568   1.420       .  A
C567        C572   1.390       .  A
C567        H574   1.076       .  S
C568        C607   1.577       .  S
C568        C771   1.425       .  A
C569        C770   1.425       .  A
C569        C570   1.396       .  A
C569        F576   1.354       .  S
C570        C773   1.394       .  A
C570        H575   1.084       .  S
C571        C772   1.394       .  A
C571        C572   1.391       .  A
C572        F573   1.354       .  S
C577        C780   1.435       .  A
C577        C582   1.396   1_556  A
C577        H584   1.084   1_556  S
C578        C607   1.576       .  S
C578        C779   1.435       .  A
C578        C579   1.408       .  A
C579        C580   1.398       .  A
C579        F586   1.356       .  S
C580        C581   1.419       .  A
C580        H585   1.083       .  S
C581        C784   1.389       .  A
C582        C783   1.389   1_554  A
C582        F583   1.358       .  S
C587        C790   1.399       .  A
C587        C592   1.401   1_556  A
C587        H594   1.083   1_556  S
C588        C789   1.399       .  A
C588        C589   1.416       .  A
C589        C590   1.402       .  A
C589        F596   1.357       .  S
C590        C591   1.407       .  A
C590        H595   1.083       .  S
C591        C607   1.561       .  S
C591        C794   1.424       .  A
C592        C793   1.424   1_554  A
C592        F593   1.355       .  S
C597        C598   1.412       .  A
C597        C602   1.392       .  A
C597        H604   1.082       .  S
C598        C599   1.393       .  A
C599        C600   1.357       .  A
C599        F606   1.355       .  S
C600        C601   1.412       .  A
C600        H605   1.077       .  S
C601        C602   1.419       .  A
C602        F603   1.345       .  S
C607        C803   1.565       .  S
C608        C743   1.558       .  S
C608        C750   1.560       .  S
C608        C760   1.568       .  S
C608        C800   1.532       .  S
C609        C703   1.577       .  S
C609        C713   1.554       .  S
C609        C720   1.556       .  S
C609        C733   1.527       .  S
C610        C673   1.568       .  S
C610        C683   1.570       .  S
C610        C690   1.559       .  S
C610        C730   1.533       .  S
O611        C619   1.263       .  A
O611       Co631   1.995   1_566  S
O612       Co632   2.088       .  S
O613       C1429   1.259       .  A
O613       Co633   2.003       .  S
O614        C622   1.246       .  A
O614      Co1442   1.920   1_565  S
O615        C621   1.275       .  A
O615       Co632   2.076       .  S
O616        C622   1.288   1_554  A
O616       Co631   2.069   1_565  S
O617        C620   1.256       .  A
O617       Co634   1.880   1_565  S
O618       Co633   1.996       .  S
C619        C723   1.477       .  S
C620        C710   1.462       .  S
C621       O1421   1.259   1_455  A
C621        C651   1.532       .  S
C622        C783   1.485       .  S
O623        C636   1.260       .  A
O624        C637   1.254       .  A
O624       Co632   1.944       .  S
O625        C638   1.268       .  A
O625       Co633   1.994       .  S
O626        C639   1.298       .  A
O627        C639   1.264       .  A
O627       Co632   1.881       .  S
O628        C638   1.276       .  A
O629       C1444   1.263   1_565  A
O630        C637   1.285       .  A
O630      Co1441   2.064   1_455  S
Co631      O1039   2.060   1_554  S
Co632       O635   2.031   1_455  S
Co633      O1438   2.064       .  S
Co633      O1443   2.054       .  S
Co634      O1422   1.920   1_445  S
O635      Co1035   2.060   1_556  S
O635      Co1441   2.054       .  S
C636       O1437   1.263   1_545  A
C636        C666   1.523       .  S
C637        C700   1.484       .  S
C638        C790   1.493       .  S
C639        C773   1.453       .  S
O640       Co660   2.013       .  S
O641        C649   1.261       .  A
O641       Co661   1.876       .  S
O642        C650   1.286       .  A
O642       Co662   2.066   1_565  S
O643        C651   1.271       .  A
O643       Co663   2.069       .  S
O644        C650   1.248       .  A
O644      Co1469   1.932       .  S
O645       C1459   1.265       .  A
O645       Co660   2.000       .  S
O646       Co663   2.102       .  S
O647        C648   1.265       .  A
O647       Co662   1.978   1_565  S
C648        C693   1.486       .  S
C649        C680   1.461       .  S
C650        C753   1.467       .  S
C651       O1453   1.265   1_455  A
O652        C665   1.285       .  A
O652      Co1468   2.041   1_455  S
O653       C1474   1.271   1_565  A
O653       Co661   2.075       .  S
O654        C667   1.271       .  A
O655        C668   1.259       .  A
O655       Co663   1.884       .  S
O656        C668   1.299       .  A
O657        C667   1.265       .  A
O657       Co660   1.995       .  S
O658        C665   1.255       .  A
O658       Co663   1.944       .  S
O659        C666   1.254       .  A
O659       Co662   1.986       .  S
Co660      O1460   2.041       .  S
Co660      O1472   2.056       .  S
Co661      O1452   1.932   1_455  S
Co662      O1068   2.036       .  S
Co663       O664   2.015   1_455  S
O664      Co1468   2.056       .  S
O664      Co1066   2.036       .  S
C665        C670   1.461       .  S
C666       O1461   1.271   1_545  A
C667        C763   1.486       .  S
C668        C740   1.463       .  S
C669        C670   1.412       .  A
C669        C674   1.408       .  A
C669        H676   1.083       .  S
C670        C671   1.384       .  A
C671        C672   1.379       .  A
C671        F678   1.359       .  S
C672        C673   1.430       .  A
C672        H677   1.079       .  S
C673        C674   1.409       .  A
C674        F675   1.357       .  S
C679        C680   1.403       .  A
C679        C684   1.402       .  A
C679        H686   1.082       .  S
C680        C681   1.388       .  A
C681        C682   1.389       .  A
C682        C683   1.429       .  A
C682        H687   1.083       .  S
C683        C684   1.420       .  A
C684        F685   1.351       .  S
C689        C690   1.408       .  A
C689        C694   1.394       .  A
C689        H696   1.080       .  S
C690        C691   1.423       .  A
C691        C692   1.406       .  A
C691        F698   1.356       .  S
C692        C693   1.401       .  A
C692        H697   1.080       .  S
C693        C694   1.411       .  A
C699        C700   1.401       .  A
C699        C704   1.411       .  A
C699        H706   1.081       .  S
C700        C701   1.400       .  A
C701        C702   1.398       .  A
C701        F708   1.358       .  S
C702        C703   1.421       .  A
C702        H707   1.082       .  S
C703        C704   1.430       .  A
C704        F705   1.353       .  S
C709        C710   1.411       .  A
C709        C714   1.398       .  A
C709        H716   1.083   1_556  S
C710        C711   1.388       .  A
C711        C712   1.379       .  A
C711        F718   1.359       .  S
C712        C713   1.427       .  A
C712        H717   1.079       .  S
C713        C714   1.406       .  A
C714        F715   1.358       .  S
C719        C720   1.407       .  A
C719        C724   1.402       .  A
C719        H726   1.080       .  S
C720        C721   1.429       .  A
C721        C722   1.395       .  A
C721        F728   1.354       .  S
C722        C723   1.393       .  A
C722        H727   1.084       .  S
C723        C724   1.404       .  A
C724        F725   1.342       .  S
C729        C730   1.404       .  A
C729        C734   1.373       .  A
C729        H736   1.074       .  S
C730        C731   1.413       .  A
C731        C732   1.363       .  A
C731        F738   1.358       .  S
C732        C733   1.407       .  A
C732        H737   1.083       .  S
C733        C734   1.414       .  A
C734        F735   1.355       .  S
C739        C740   1.391       .  A
C739        C744   1.399       .  A
C739        H746   1.084       .  S
C740        C741   1.398       .  A
C741        C742   1.393       .  A
C741        F748   1.353       .  S
C742        C743   1.414       .  A
C742        H747   1.078       .  S
C743        C744   1.432       .  A
C744        F745   1.355       .  S
C749        C750   1.419       .  A
C749        C754   1.396       .  A
C749        H756   1.076       .  S
C750        C751   1.413       .  A
C751        C752   1.406       .  A
C751        F758   1.356       .  S
C752        C753   1.402       .  A
C752        H757   1.074       .  S
C753        C754   1.400       .  A
C754        F755   1.358       .  S
C759        C760   1.408       .  A
C759        C764   1.406       .  A
C759        H766   1.083       .  S
C760        C761   1.431       .  A
C761        C762   1.390       .  A
C761        F768   1.356       .  S
C762        C763   1.393       .  A
C762        H767   1.083       .  S
C763        C764   1.415       .  A
C764        F765   1.357       .  S
C769        C770   1.420       .  A
C769        C774   1.390       .  A
C769        H776   1.076       .  S
C771        C772   1.396       .  A
C771        F778   1.354       .  S
C772        H777   1.084       .  S
C773        C774   1.391       .  A
C774        F775   1.354       .  S
C779        C784   1.396       .  A
C779        H786   1.084       .  S
C780        C781   1.408       .  A
C781        C782   1.398       .  A
C781        F788   1.356       .  S
C782        C783   1.419       .  A
C782        H787   1.083       .  S
C784        F785   1.358       .  S
C789        C794   1.401       .  A
C789        H796   1.083       .  S
C790        C791   1.416       .  A
C791        C792   1.402       .  A
C791        F798   1.357       .  S
C792        C793   1.407       .  A
C792        H797   1.083       .  S
C794        F795   1.355       .  S
C799        C800   1.412       .  A
C799        C804   1.392       .  A
C799        H806   1.082       .  S
C800        C801   1.393       .  A
C801        C802   1.357       .  A
C801        F808   1.355       .  S
C802        C803   1.412       .  A
C802        H807   1.077       .  S
C803        C804   1.419       .  A
C804        F805   1.345       .  S
C809       C1174   1.577       .  S
C809       C1184   1.576       .  S
C809       C1197   1.561       .  S
C809       C1005   1.565   1_556  S
C810        C945   1.558       .  S
C810        C952   1.560       .  S
C810        C962   1.568       .  S
C810       C1002   1.532       .  S
C811        C905   1.577       .  S
C811        C915   1.554       .  S
C811        C922   1.556       .  S
C811        C935   1.527       .  S
C812        C875   1.568       .  S
C812        C885   1.570       .  S
C812        C892   1.559       .  S
C812        C932   1.533       .  S
O813        C821   1.263       .  A
O813       Co833   1.995       .  S
O814       C1226   1.300       .  A
O814       Co834   2.088   1_565  S
O815       Co835   2.003   1_565  S
O816        C824   1.246       .  A
O817        C823   1.275       .  A
O817       Co834   2.076       .  S
O818        C824   1.288       .  A
O818       Co833   2.069       .  S
O819        C822   1.256       .  A
O819       Co836   1.880       .  S
O820       C1225   1.269       .  A
O820       Co835   1.996   1_565  S
C821       O1224   1.269       .  A
C821        C925   1.477       .  S
C822       O1218   1.300       .  A
C822        C912   1.462       .  S
C823        C853   1.532       .  S
C824        C985   1.485       .  S
O825        C838   1.260       .  A
O825      Co1035   2.006   1_455  S
O826        C839   1.254       .  A
O826       Co834   1.944       .  S
O827        C840   1.268       .  A
O827       Co835   1.994       .  S
O828        C841   1.298       .  A
O828      Co1240   2.076       .  S
O829        C841   1.264       .  A
O829       Co834   1.881       .  S
O830        C840   1.276       .  A
O830      Co1237   2.002       .  S
O831      Co1038   2.055   1_554  S
O832        C839   1.285       .  A
Co833      O1027   2.006   1_655  S
Co833      O1234   2.002       .  S
Co834       O837   2.031       .  S
Co836      O1232   2.076       .  S
Co836      O1033   2.055       .  S
Co836      O1241   2.027       .  S
O837      Co1240   2.027       .  S
C838        C868   1.523       .  S
C839        C902   1.484       .  S
C840        C992   1.493       .  S
C841        C975   1.453       .  S
O842       C1254   1.276       .  A
O842       Co862   2.013   1_565  S
O843        C851   1.261       .  A
O843       Co863   1.876       .  S
O844        C852   1.286       .  A
O844       Co864   2.066       .  S
O845        C853   1.271       .  A
O845       Co865   2.069       .  S
O846        C852   1.248       .  A
O847       Co862   2.000   1_565  S
O848       C1255   1.303       .  A
O848       Co865   2.102   1_565  S
O849        C850   1.265       .  A
O849       Co864   1.978       .  S
C850       O1246   1.276       .  A
C850        C895   1.486       .  S
C851       O1252   1.303       .  A
C851        C882   1.461       .  S
C852        C955   1.467       .  S
O854        C867   1.285       .  A
O855       Co863   2.075       .  S
O856        C869   1.271       .  A
O856      Co1268   1.989       .  S
O857        C870   1.259       .  A
O857       Co865   1.884       .  S
O858        C870   1.299       .  A
O858      Co1267   2.097   1_545  S
O859        C869   1.265       .  A
O859       Co862   1.995       .  S
O860        C867   1.255       .  A
O860       Co865   1.944       .  S
O861        C868   1.254       .  A
O861       Co864   1.986   1_455  S
Co863      O1262   2.097       .  S
Co863      O1270   2.026       .  S
Co864      O1260   1.989       .  S
Co865       O866   2.015       .  S
O866      Co1267   2.026   1_545  S
C867        C872   1.461       .  S
C869        C965   1.486       .  S
C870        C942   1.463       .  S
C871        C872   1.412       .  A
C871        C876   1.408       .  A
C871        H878   1.083       .  S
C872        C873   1.384       .  A
C873        C874   1.379       .  A
C873        F880   1.359       .  S
C874        C875   1.430       .  A
C874        H879   1.079       .  S
C875        C876   1.409       .  A
C876        F877   1.357       .  S
C881        C882   1.403       .  A
C881        C886   1.402       .  A
C881        H888   1.082       .  S
C882        C883   1.388       .  A
C883        C884   1.389       .  A
C883       F1294   1.358       .  S
C884        C885   1.429       .  A
C884        H889   1.083       .  S
C885        C886   1.420       .  A
C886        F887   1.351       .  S
F890       C1287   1.358       .  S
C891        C892   1.408       .  A
C891        C896   1.394       .  A
C891        H898   1.080       .  S
C892        C893   1.423       .  A
C893        C894   1.406       .  A
C893        F900   1.356       .  S
C894        C895   1.401       .  A
C894        H899   1.080       .  S
C895        C896   1.411       .  A
C896       F1301   1.359       .  S
F897       C1300   1.359       .  S
C901        C902   1.401       .  A
C901        C906   1.411       .  A
C901        H908   1.081       .  S
C902        C903   1.400       .  A
C903        C904   1.398       .  A
C903        F910   1.358       .  S
C904        C905   1.421       .  A
C904        H909   1.082       .  S
C905        C906   1.430       .  A
C906        F907   1.353       .  S
C911        C912   1.411       .  A
C911        C916   1.398       .  A
C911        H918   1.083       .  S
C912        C913   1.388       .  A
C913        C914   1.379       .  A
C913        F920   1.359       .  S
C914        C915   1.427       .  A
C914        H919   1.079       .  S
C915        C916   1.406       .  A
C916        F917   1.358       .  S
C921        C922   1.407       .  A
C921        C926   1.402       .  A
C921        H928   1.080       .  S
C922        C923   1.429       .  A
C923        C924   1.395       .  A
C923        F930   1.354       .  S
C924        C925   1.393       .  A
C924        H929   1.084       .  S
C925        C926   1.404       .  A
C926        F927   1.342       .  S
C931        C932   1.404       .  A
C931        C936   1.373       .  A
C931        H938   1.074       .  S
C932        C933   1.413       .  A
C933        C934   1.363       .  A
C933        F940   1.358       .  S
C934        C935   1.407       .  A
C934        H939   1.083       .  S
C935        C936   1.414       .  A
C936        F937   1.355       .  S
C941        C942   1.391       .  A
C941        C946   1.399       .  A
C941        H948   1.084       .  S
C942        C943   1.398       .  A
C943        C944   1.393       .  A
C943        F950   1.353       .  S
C944        C945   1.414       .  A
C944        H949   1.078       .  S
C945        C946   1.432       .  A
C946        F947   1.355       .  S
C951        C952   1.419       .  A
C951        C956   1.396       .  A
C951        H958   1.076       .  S
C952        C953   1.413       .  A
C953        C954   1.406       .  A
C953        F960   1.356       .  S
C954        C955   1.402       .  A
C954        H959   1.074       .  S
C955        C956   1.400       .  A
C956        F957   1.358       .  S
C961        C962   1.408       .  A
C961        C966   1.406       .  A
C961        H968   1.083       .  S
C962        C963   1.431       .  A
C963        C964   1.390       .  A
C963        F970   1.356       .  S
C964        C965   1.393       .  A
C964        H969   1.083       .  S
C965        C966   1.415       .  A
C966        F967   1.357       .  S
C971        C972   1.420       .  A
C971        C976   1.390       .  A
C971        H978   1.076       .  S
C972       C1011   1.577       .  S
C972       C1175   1.425       .  A
C973       C1174   1.425       .  A
C973        C974   1.396       .  A
C973        F980   1.354       .  S
C974       C1177   1.394       .  A
C974        H979   1.084       .  S
C975       C1176   1.394       .  A
C975        C976   1.391       .  A
C976        F977   1.354       .  S
C981       C1184   1.435       .  A
C981        C986   1.396   1_556  A
C981        H988   1.084   1_556  S
C982       C1011   1.576       .  S
C982       C1183   1.435       .  A
C982        C983   1.408       .  A
C983        C984   1.398       .  A
C983        F990   1.356       .  S
C984        C985   1.419       .  A
C984        H989   1.083       .  S
C985       C1188   1.389       .  A
C986       C1187   1.389   1_554  A
C986        F987   1.358       .  S
C991       C1194   1.399       .  A
C991        C996   1.401   1_556  A
C991        H998   1.083   1_556  S
C992       C1193   1.399       .  A
C992        C993   1.416       .  A
C993        C994   1.402       .  A
C993       F1000   1.357       .  S
C994        C995   1.407       .  A
C994        H999   1.083       .  S
C995       C1011   1.561       .  S
C995       C1198   1.424       .  A
C996       C1197   1.424   1_554  A
C996        F997   1.355       .  S
C1001      C1002   1.412       .  A
C1001      C1006   1.392       .  A
C1001      H1008   1.082       .  S
C1002      C1003   1.393       .  A
C1003      C1004   1.357       .  A
C1003      F1010   1.355       .  S
C1004      C1005   1.412       .  A
C1004      H1009   1.077       .  S
C1005      C1006   1.419       .  A
C1006      F1007   1.345       .  S
C1011      C1207   1.565       .  S
C1012      C1147   1.558       .  S
C1012      C1154   1.560       .  S
C1012      C1164   1.568       .  S
C1012      C1204   1.532       .  S
C1013      C1107   1.577       .  S
C1013      C1117   1.554       .  S
C1013      C1124   1.556       .  S
C1013      C1137   1.527       .  S
C1014      C1077   1.568       .  S
C1014      C1087   1.570       .  S
C1014      C1094   1.559       .  S
C1014      C1134   1.533       .  S
O1015      C1023   1.263       .  A
O1015     Co1035   1.995   1_556  S
O1016      C1428   1.300       .  A
O1016     Co1036   2.088   1_565  S
O1017     Co1037   2.003   1_565  S
O1018      C1026   1.246       .  A
O1019      C1025   1.275       .  A
O1019     Co1036   2.076       .  S
O1020      C1026   1.288   1_554  A
O1020     Co1035   2.069       .  S
O1021      C1024   1.256       .  A
O1021     Co1038   1.880       .  S
O1022      C1427   1.269       .  A
O1022     Co1037   1.996   1_565  S
C1023      O1426   1.269       .  A
C1023      C1127   1.477       .  S
C1024      O1420   1.300       .  A
C1024      C1114   1.462       .  S
C1025      C1055   1.532       .  S
C1026      C1187   1.485       .  S
O1027      C1040   1.260       .  A
O1028      C1041   1.254       .  A
O1028     Co1036   1.944       .  S
O1029      C1042   1.268       .  A
O1029     Co1037   1.994       .  S
O1030      C1043   1.298       .  A
O1030     Co1442   2.076       .  S
O1031      C1043   1.264       .  A
O1031     Co1036   1.881       .  S
O1032      C1042   1.276       .  A
O1032     Co1439   2.002   1_556  S
O1034      C1041   1.285       .  A
Co1035     O1436   2.002   1_554  S
Co1036     O1039   2.031       .  S
Co1038     O1434   2.076       .  S
Co1038     O1443   2.027       .  S
O1039     Co1442   2.027       .  S
C1040      C1070   1.523       .  S
C1041      C1104   1.484       .  S
C1042      C1194   1.493       .  S
C1043      C1177   1.453       .  S
O1044      C1456   1.276       .  A
O1044     Co1064   2.013   1_565  S
O1045      C1053   1.261       .  A
O1045     Co1065   1.876       .  S
O1046      C1054   1.286       .  A
O1046     Co1066   2.066       .  S
O1047      C1055   1.271       .  A
O1047     Co1067   2.069       .  S
O1048      C1054   1.248       .  A
O1049     Co1064   2.000   1_565  S
O1050      C1457   1.303       .  A
O1050     Co1067   2.102   1_565  S
O1051      C1052   1.265       .  A
O1051     Co1066   1.978       .  S
C1052      O1448   1.276       .  A
C1052      C1097   1.486       .  S
C1053      O1454   1.303       .  A
C1053      C1084   1.461       .  S
C1054      C1157   1.467       .  S
O1056      C1069   1.285       .  A
O1057     Co1065   2.075       .  S
O1058      C1071   1.271       .  A
O1058     Co1470   1.989       .  S
O1059      C1072   1.259       .  A
O1059     Co1067   1.884       .  S
O1060      C1072   1.299       .  A
O1060     Co1469   2.097   1_545  S
O1061      C1071   1.265       .  A
O1061     Co1064   1.995       .  S
O1062      C1069   1.255       .  A
O1062     Co1067   1.944       .  S
O1063      C1070   1.254       .  A
O1063     Co1066   1.986   1_455  S
Co1065     O1464   2.097       .  S
Co1065     O1472   2.026       .  S
Co1066     O1462   1.989       .  S
Co1067     O1068   2.015       .  S
O1068     Co1469   2.026   1_545  S
C1069      C1074   1.461       .  S
C1071      C1167   1.486       .  S
C1072      C1144   1.463       .  S
C1073      C1074   1.412       .  A
C1073      C1078   1.408       .  A
C1073      H1080   1.083       .  S
C1074      C1075   1.384       .  A
C1075      C1076   1.379       .  A
C1075      F1082   1.359       .  S
C1076      C1077   1.430       .  A
C1076      H1081   1.079       .  S
C1077      C1078   1.409       .  A
C1078      F1079   1.357       .  S
C1083      C1084   1.403       .  A
C1083      C1088   1.402       .  A
C1083      H1090   1.082       .  S
C1084      C1085   1.388       .  A
C1085      C1086   1.389       .  A
C1085      F1496   1.358       .  S
C1086      C1087   1.429       .  A
C1086      H1091   1.083       .  S
C1087      C1088   1.420       .  A
C1088      F1089   1.351       .  S
F1092      C1489   1.358       .  S
C1093      C1094   1.408       .  A
C1093      C1098   1.394       .  A
C1093      H1100   1.080       .  S
C1094      C1095   1.423       .  A
C1095      C1096   1.406       .  A
C1095      F1102   1.356       .  S
C1096      C1097   1.401       .  A
C1096      H1101   1.080       .  S
C1097      C1098   1.411       .  A
C1098      F1503   1.359       .  S
F1099      C1502   1.359       .  S
C1103      C1104   1.401       .  A
C1103      C1108   1.411       .  A
C1103      H1110   1.081       .  S
C1104      C1105   1.400       .  A
C1105      C1106   1.398       .  A
C1105      F1112   1.358       .  S
C1106      C1107   1.421       .  A
C1106      H1111   1.082       .  S
C1107      C1108   1.430       .  A
C1108      F1109   1.353       .  S
C1113      C1114   1.411       .  A
C1113      C1118   1.398       .  A
C1113      H1120   1.083   1_556  S
C1114      C1115   1.388       .  A
C1115      C1116   1.379       .  A
C1115      F1122   1.359       .  S
C1116      C1117   1.427       .  A
C1116      H1121   1.079       .  S
C1117      C1118   1.406       .  A
C1118      F1119   1.358       .  S
C1123      C1124   1.407       .  A
C1123      C1128   1.402       .  A
C1123      H1130   1.080       .  S
C1124      C1125   1.429       .  A
C1125      C1126   1.395       .  A
C1125      F1132   1.354       .  S
C1126      C1127   1.393       .  A
C1126      H1131   1.084       .  S
C1127      C1128   1.404       .  A
C1128      F1129   1.342       .  S
C1133      C1134   1.404       .  A
C1133      C1138   1.373       .  A
C1133      H1140   1.074       .  S
C1134      C1135   1.413       .  A
C1135      C1136   1.363       .  A
C1135      F1142   1.358       .  S
C1136      C1137   1.407       .  A
C1136      H1141   1.083       .  S
C1137      C1138   1.414       .  A
C1138      F1139   1.355       .  S
C1143      C1144   1.391       .  A
C1143      C1148   1.399       .  A
C1143      H1150   1.084       .  S
C1144      C1145   1.398       .  A
C1145      C1146   1.393       .  A
C1145      F1152   1.353       .  S
C1146      C1147   1.414       .  A
C1146      H1151   1.078       .  S
C1147      C1148   1.432       .  A
C1148      F1149   1.355       .  S
C1153      C1154   1.419       .  A
C1153      C1158   1.396       .  A
C1153      H1160   1.076       .  S
C1154      C1155   1.413       .  A
C1155      C1156   1.406       .  A
C1155      F1162   1.356       .  S
C1156      C1157   1.402       .  A
C1156      H1161   1.074       .  S
C1157      C1158   1.400       .  A
C1158      F1159   1.358       .  S
C1163      C1164   1.408       .  A
C1163      C1168   1.406       .  A
C1163      H1170   1.083       .  S
C1164      C1165   1.431       .  A
C1165      C1166   1.390       .  A
C1165      F1172   1.356       .  S
C1166      C1167   1.393       .  A
C1166      H1171   1.083       .  S
C1167      C1168   1.415       .  A
C1168      F1169   1.357       .  S
C1173      C1174   1.420       .  A
C1173      C1178   1.390       .  A
C1173      H1180   1.076       .  S
C1175      C1176   1.396       .  A
C1175      F1182   1.354       .  S
C1176      H1181   1.084       .  S
C1177      C1178   1.391       .  A
C1178      F1179   1.354       .  S
C1183      C1188   1.396       .  A
C1183      H1190   1.084       .  S
C1184      C1185   1.408       .  A
C1185      C1186   1.398       .  A
C1185      F1192   1.356       .  S
C1186      C1187   1.419       .  A
C1186      H1191   1.083       .  S
C1188      F1189   1.358       .  S
C1193      C1198   1.401       .  A
C1193      H1200   1.083       .  S
C1194      C1195   1.416       .  A
C1195      C1196   1.402       .  A
C1195      F1202   1.357       .  S
C1196      C1197   1.407       .  A
C1196      H1201   1.083       .  S
C1198      F1199   1.355       .  S
C1203      C1204   1.412       .  A
C1203      C1208   1.392       .  A
C1203      H1210   1.082       .  S
C1204      C1205   1.393       .  A
C1205      C1206   1.357       .  A
C1205      F1212   1.355       .  S
C1206      C1207   1.412       .  A
C1206      H1211   1.077       .  S
C1207      C1208   1.419       .  A
C1208      F1209   1.345       .  S
C1213      C1578   1.577       .  S
C1213      C1588   1.576       .  S
C1213      C1601   1.561       .  S
C1213      C1409   1.565   1_556  S
C1214      C1349   1.558       .  S
C1214      C1356   1.560       .  S
C1214      C1366   1.568       .  S
C1214      C1406   1.532       .  S
C1215      C1309   1.577       .  S
C1215      C1319   1.554       .  S
C1215      C1326   1.556       .  S
C1215      C1339   1.527       .  S
C1216      C1279   1.568       .  S
C1216      C1289   1.570       .  S
C1216      C1296   1.559       .  S
C1216      C1336   1.533       .  S
O1217      C1225   1.263       .  A
O1217     Co1237   1.995   1_565  S
O1218     Co1238   2.088       .  S
O1219     Co1239   2.003       .  S
O1220      C1228   1.246       .  A
O1221      C1227   1.275       .  A
O1221     Co1238   2.076       .  S
O1222      C1228   1.288       .  A
O1222     Co1237   2.069   1_565  S
O1223      C1226   1.256       .  A
O1223     Co1240   1.880   1_565  S
O1224     Co1239   1.996       .  S
C1225      C1329   1.477       .  S
C1226      C1316   1.462       .  S
C1227      C1257   1.532       .  S
C1228      C1389   1.485       .  S
O1229      C1242   1.260       .  A
O1229     Co1439   2.006   1_455  S
O1230      C1243   1.254       .  A
O1230     Co1238   1.944       .  S
O1231      C1244   1.268       .  A
O1231     Co1239   1.994       .  S
O1232      C1245   1.298       .  A
O1233      C1245   1.264       .  A
O1233     Co1238   1.881       .  S
O1234      C1244   1.276       .  A
O1235     Co1442   2.055   1_564  S
O1236      C1243   1.285       .  A
Co1237     O1431   2.006   1_655  S
Co1238     O1241   2.031       .  S
Co1240     O1437   2.055   1_545  S
C1242      C1272   1.523       .  S
C1243      C1306   1.484       .  S
C1244      C1396   1.493       .  S
C1245      C1379   1.453       .  S
O1246     Co1266   2.013       .  S
O1247      C1255   1.261       .  A
O1247     Co1267   1.876       .  S
O1248      C1256   1.286       .  A
O1248     Co1268   2.066   1_565  S
O1249      C1257   1.271       .  A
O1249     Co1269   2.069       .  S
O1250      C1256   1.248       .  A
O1251     Co1266   2.000       .  S
O1252     Co1269   2.102       .  S
O1253      C1254   1.265       .  A
O1253     Co1268   1.978   1_565  S
C1254      C1299   1.486       .  S
C1255      C1286   1.461       .  S
C1256      C1359   1.467       .  S
O1258      C1271   1.285       .  A
O1259     Co1267   2.075       .  S
O1260      C1273   1.271       .  A
O1261      C1274   1.259       .  A
O1261     Co1269   1.884       .  S
O1262      C1274   1.299       .  A
O1263      C1273   1.265       .  A
O1263     Co1266   1.995       .  S
O1264      C1271   1.255       .  A
O1264     Co1269   1.944       .  S
O1265      C1272   1.254       .  A
O1265     Co1268   1.986   1_455  S
Co1269     O1270   2.015       .  S
C1271      C1276   1.461       .  S
C1273      C1369   1.486       .  S
C1274      C1346   1.463       .  S
C1275      C1276   1.412       .  A
C1275      C1280   1.408       .  A
C1275      H1282   1.083       .  S
C1276      C1277   1.384       .  A
C1277      C1278   1.379       .  A
C1277      F1284   1.359       .  S
C1278      C1279   1.430       .  A
C1278      H1283   1.079       .  S
C1279      C1280   1.409       .  A
C1280      F1281   1.357       .  S
C1285      C1286   1.403       .  A
C1285      C1290   1.402       .  A
C1285      H1292   1.082       .  S
C1286      C1287   1.388       .  A
C1287      C1288   1.389       .  A
C1288      C1289   1.429       .  A
C1288      H1293   1.083       .  S
C1289      C1290   1.420       .  A
C1290      F1291   1.351       .  S
C1295      C1296   1.408       .  A
C1295      C1300   1.394       .  A
C1295      H1302   1.080       .  S
C1296      C1297   1.423       .  A
C1297      C1298   1.406       .  A
C1297      F1304   1.356       .  S
C1298      C1299   1.401       .  A
C1298      H1303   1.080       .  S
C1299      C1300   1.411       .  A
C1305      C1306   1.401       .  A
C1305      C1310   1.411       .  A
C1305      H1312   1.081       .  S
C1306      C1307   1.400       .  A
C1307      C1308   1.398       .  A
C1307      F1314   1.358       .  S
C1308      C1309   1.421       .  A
C1308      H1313   1.082       .  S
C1309      C1310   1.430       .  A
C1310      F1311   1.353       .  S
C1315      C1316   1.411       .  A
C1315      C1320   1.398       .  A
C1315      H1322   1.083       .  S
C1316      C1317   1.388       .  A
C1317      C1318   1.379       .  A
C1317      F1324   1.359       .  S
C1318      C1319   1.427       .  A
C1318      H1323   1.079       .  S
C1319      C1320   1.406       .  A
C1320      F1321   1.358       .  S
C1325      C1326   1.407       .  A
C1325      C1330   1.402       .  A
C1325      H1332   1.080       .  S
C1326      C1327   1.429       .  A
C1327      C1328   1.395       .  A
C1327      F1334   1.354       .  S
C1328      C1329   1.393       .  A
C1328      H1333   1.084       .  S
C1329      C1330   1.404       .  A
C1330      F1331   1.342       .  S
C1335      C1336   1.404       .  A
C1335      C1340   1.373       .  A
C1335      H1342   1.074       .  S
C1336      C1337   1.413       .  A
C1337      C1338   1.363       .  A
C1337      F1344   1.358       .  S
C1338      C1339   1.407       .  A
C1338      H1343   1.083       .  S
C1339      C1340   1.414       .  A
C1340      F1341   1.355       .  S
C1345      C1346   1.391       .  A
C1345      C1350   1.399       .  A
C1345      H1352   1.084       .  S
C1346      C1347   1.398       .  A
C1347      C1348   1.393       .  A
C1347      F1354   1.353       .  S
C1348      C1349   1.414       .  A
C1348      H1353   1.078       .  S
C1349      C1350   1.432       .  A
C1350      F1351   1.355       .  S
C1355      C1356   1.419       .  A
C1355      C1360   1.396       .  A
C1355      H1362   1.076       .  S
C1356      C1357   1.413       .  A
C1357      C1358   1.406       .  A
C1357      F1364   1.356       .  S
C1358      C1359   1.402       .  A
C1358      H1363   1.074       .  S
C1359      C1360   1.400       .  A
C1360      F1361   1.358       .  S
C1365      C1366   1.408       .  A
C1365      C1370   1.406       .  A
C1365      H1372   1.083       .  S
C1366      C1367   1.431       .  A
C1367      C1368   1.390       .  A
C1367      F1374   1.356       .  S
C1368      C1369   1.393       .  A
C1368      H1373   1.083       .  S
C1369      C1370   1.415       .  A
C1370      F1371   1.357       .  S
C1375      C1376   1.420       .  A
C1375      C1380   1.390       .  A
C1375      H1382   1.076       .  S
C1376      C1415   1.577       .  S
C1376      C1579   1.425       .  A
C1377      C1578   1.425       .  A
C1377      C1378   1.396       .  A
C1377      F1384   1.354       .  S
C1378      C1581   1.394       .  A
C1378      H1383   1.084       .  S
C1379      C1580   1.394       .  A
C1379      C1380   1.391       .  A
C1380      F1381   1.354       .  S
C1385      C1588   1.435       .  A
C1385      C1390   1.396   1_556  A
C1385      H1392   1.084   1_556  S
C1386      C1415   1.576       .  S
C1386      C1587   1.435       .  A
C1386      C1387   1.408       .  A
C1387      C1388   1.398       .  A
C1387      F1394   1.356       .  S
C1388      C1389   1.419       .  A
C1388      H1393   1.083       .  S
C1389      C1592   1.389       .  A
C1390      C1591   1.389   1_554  A
C1390      F1391   1.358       .  S
C1395      C1598   1.399       .  A
C1395      C1400   1.401   1_556  A
C1395      H1402   1.083   1_556  S
C1396      C1597   1.399       .  A
C1396      C1397   1.416       .  A
C1397      C1398   1.402       .  A
C1397      F1404   1.357       .  S
C1398      C1399   1.407       .  A
C1398      H1403   1.083       .  S
C1399      C1415   1.561       .  S
C1399      C1602   1.424       .  A
C1400      C1601   1.424   1_554  A
C1400      F1401   1.355       .  S
C1405      C1406   1.412       .  A
C1405      C1410   1.392       .  A
C1405      H1412   1.082       .  S
C1406      C1407   1.393       .  A
C1407      C1408   1.357       .  A
C1407      F1414   1.355       .  S
C1408      C1409   1.412       .  A
C1408      H1413   1.077       .  S
C1409      C1410   1.419       .  A
C1410      F1411   1.345       .  S
C1415      C1611   1.565       .  S
C1416      C1551   1.558       .  S
C1416      C1558   1.560       .  S
C1416      C1568   1.568       .  S
C1416      C1608   1.532       .  S
C1417      C1511   1.577       .  S
C1417      C1521   1.554       .  S
C1417      C1528   1.556       .  S
C1417      C1541   1.527       .  S
C1418      C1481   1.568       .  S
C1418      C1491   1.570       .  S
C1418      C1498   1.559       .  S
C1418      C1538   1.533       .  S
O1419      C1427   1.263       .  A
O1419     Co1439   1.995   1_566  S
O1420     Co1440   2.088       .  S
O1421     Co1441   2.003       .  S
O1422      C1430   1.246       .  A
O1423      C1429   1.275       .  A
O1423     Co1440   2.076       .  S
O1424      C1430   1.288   1_554  A
O1424     Co1439   2.069   1_565  S
O1425      C1428   1.256       .  A
O1425     Co1442   1.880   1_565  S
O1426     Co1441   1.996       .  S
C1427      C1531   1.477       .  S
C1428      C1518   1.462       .  S
C1429      C1459   1.532       .  S
C1430      C1591   1.485       .  S
O1431      C1444   1.260       .  A
O1432      C1445   1.254       .  A
O1432     Co1440   1.944       .  S
O1433      C1446   1.268       .  A
O1433     Co1441   1.994       .  S
O1434      C1447   1.298       .  A
O1435      C1447   1.264       .  A
O1435     Co1440   1.881       .  S
O1436      C1446   1.276       .  A
O1438      C1445   1.285       .  A
Co1440     O1443   2.031       .  S
C1444      C1474   1.523       .  S
C1445      C1508   1.484       .  S
C1446      C1598   1.493       .  S
C1447      C1581   1.453       .  S
O1448     Co1468   2.013       .  S
O1449      C1457   1.261       .  A
O1449     Co1469   1.876       .  S
O1450      C1458   1.286       .  A
O1450     Co1470   2.066   1_565  S
O1451      C1459   1.271       .  A
O1451     Co1471   2.069       .  S
O1452      C1458   1.248       .  A
O1453     Co1468   2.000       .  S
O1454     Co1471   2.102       .  S
O1455      C1456   1.265       .  A
O1455     Co1470   1.978   1_565  S
C1456      C1501   1.486       .  S
C1457      C1488   1.461       .  S
C1458      C1561   1.467       .  S
O1460      C1473   1.285       .  A
O1461     Co1469   2.075       .  S
O1462      C1475   1.271       .  A
O1463      C1476   1.259       .  A
O1463     Co1471   1.884       .  S
O1464      C1476   1.299       .  A
O1465      C1475   1.265       .  A
O1465     Co1468   1.995       .  S
O1466      C1473   1.255       .  A
O1466     Co1471   1.944       .  S
O1467      C1474   1.254       .  A
O1467     Co1470   1.986   1_455  S
Co1471     O1472   2.015       .  S
C1473      C1478   1.461       .  S
C1475      C1571   1.486       .  S
C1476      C1548   1.463       .  S
C1477      C1478   1.412       .  A
C1477      C1482   1.408       .  A
C1477      H1484   1.083       .  S
C1478      C1479   1.384       .  A
C1479      C1480   1.379       .  A
C1479      F1486   1.359       .  S
C1480      C1481   1.430       .  A
C1480      H1485   1.079       .  S
C1481      C1482   1.409       .  A
C1482      F1483   1.357       .  S
C1487      C1488   1.403       .  A
C1487      C1492   1.402       .  A
C1487      H1494   1.082       .  S
C1488      C1489   1.388       .  A
C1489      C1490   1.389       .  A
C1490      C1491   1.429       .  A
C1490      H1495   1.083       .  S
C1491      C1492   1.420       .  A
C1492      F1493   1.351       .  S
C1497      C1498   1.408       .  A
C1497      C1502   1.394       .  A
C1497      H1504   1.080       .  S
C1498      C1499   1.423       .  A
C1499      C1500   1.406       .  A
C1499      F1506   1.356       .  S
C1500      C1501   1.401       .  A
C1500      H1505   1.080       .  S
C1501      C1502   1.411       .  A
C1507      C1508   1.401       .  A
C1507      C1512   1.411       .  A
C1507      H1514   1.081       .  S
C1508      C1509   1.400       .  A
C1509      C1510   1.398       .  A
C1509      F1516   1.358       .  S
C1510      C1511   1.421       .  A
C1510      H1515   1.082       .  S
C1511      C1512   1.430       .  A
C1512      F1513   1.353       .  S
C1517      C1518   1.411       .  A
C1517      C1522   1.398       .  A
C1517      H1524   1.083   1_556  S
C1518      C1519   1.388       .  A
C1519      C1520   1.379       .  A
C1519      F1526   1.359       .  S
C1520      C1521   1.427       .  A
C1520      H1525   1.079       .  S
C1521      C1522   1.406       .  A
C1522      F1523   1.358       .  S
C1527      C1528   1.407       .  A
C1527      C1532   1.402       .  A
C1527      H1534   1.080       .  S
C1528      C1529   1.429       .  A
C1529      C1530   1.395       .  A
C1529      F1536   1.354       .  S
C1530      C1531   1.393       .  A
C1530      H1535   1.084       .  S
C1531      C1532   1.404       .  A
C1532      F1533   1.342       .  S
C1537      C1538   1.404       .  A
C1537      C1542   1.373       .  A
C1537      H1544   1.074       .  S
C1538      C1539   1.413       .  A
C1539      C1540   1.363       .  A
C1539      F1546   1.358       .  S
C1540      C1541   1.407       .  A
C1540      H1545   1.083       .  S
C1541      C1542   1.414       .  A
C1542      F1543   1.355       .  S
C1547      C1548   1.391       .  A
C1547      C1552   1.399       .  A
C1547      H1554   1.084       .  S
C1548      C1549   1.398       .  A
C1549      C1550   1.393       .  A
C1549      F1556   1.353       .  S
C1550      C1551   1.414       .  A
C1550      H1555   1.078       .  S
C1551      C1552   1.432       .  A
C1552      F1553   1.355       .  S
C1557      C1558   1.419       .  A
C1557      C1562   1.396       .  A
C1557      H1564   1.076       .  S
C1558      C1559   1.413       .  A
C1559      C1560   1.406       .  A
C1559      F1566   1.356       .  S
C1560      C1561   1.402       .  A
C1560      H1565   1.074       .  S
C1561      C1562   1.400       .  A
C1562      F1563   1.358       .  S
C1567      C1568   1.408       .  A
C1567      C1572   1.406       .  A
C1567      H1574   1.083       .  S
C1568      C1569   1.431       .  A
C1569      C1570   1.390       .  A
C1569      F1576   1.356       .  S
C1570      C1571   1.393       .  A
C1570      H1575   1.083       .  S
C1571      C1572   1.415       .  A
C1572      F1573   1.357       .  S
C1577      C1578   1.420       .  A
C1577      C1582   1.390       .  A
C1577      H1584   1.076       .  S
C1579      C1580   1.396       .  A
C1579      F1586   1.354       .  S
C1580      H1585   1.084       .  S
C1581      C1582   1.391       .  A
C1582      F1583   1.354       .  S
C1587      C1592   1.396       .  A
C1587      H1594   1.084       .  S
C1588      C1589   1.408       .  A
C1589      C1590   1.398       .  A
C1589      F1596   1.356       .  S
C1590      C1591   1.419       .  A
C1590      H1595   1.083       .  S
C1592      F1593   1.358       .  S
C1597      C1602   1.401       .  A
C1597      H1604   1.083       .  S
C1598      C1599   1.416       .  A
C1599      C1600   1.402       .  A
C1599      F1606   1.357       .  S
C1600      C1601   1.407       .  A
C1600      H1605   1.083       .  S
C1602      F1603   1.355       .  S
C1607      C1608   1.412       .  A
C1607      C1612   1.392       .  A
C1607      H1614   1.082       .  S
C1608      C1609   1.393       .  A
C1609      C1610   1.357       .  A
C1609      F1616   1.355       .  S
C1610      C1611   1.412       .  A
C1610      H1615   1.077       .  S
C1611      C1612   1.419       .  A
C1612      F1613   1.345       .  S
