geometry optimzed in LAMMPS
_audit_creation_date              2020-11-30 
_audit_creation_method            'lammps2cif' 
_symmetry_space_group_name_H-M    'P1' 
_symmetry_Int_Tables_number       1 
_symmetry_cell_setting            triclinic 
loop_ 
_symmetry_equiv_pos_as_xyz 
  x,y,z 
_cell_length_a                    36.99669668 
_cell_length_b                    37.00571474771339 
_cell_length_c                    37.02914650747424 
_cell_angle_alpha                 90.09685916899791 
_cell_angle_beta                  90.02002463287637 
_cell_angle_gamma                 90.03790394737128 
loop_ 
_atom_site_label 
_atom_site_type_symbol 
_atom_site_fract_x 
_atom_site_fract_y 
_atom_site_fract_z 
_atom_site_charge 
O1          O  0.24843010  0.07589629  0.33622563    -0.83800
O2          O  0.29381157  0.11084507  0.38583132    -0.80800
C3          C  0.31951514  0.12706319  0.36823008     0.99700
O4          O  0.31144651  0.15173738  0.34643690    -0.80800
O5          O  0.27245080  0.19330412  0.30173203    -0.83500
C6          C  0.27319086  0.16920211  0.27761834     1.04200
O7          O  0.24978329  0.14456735  0.27698539    -0.76200
O8          O  0.20215421  0.09495235  0.30641647    -0.76400
C9          C  0.23025831  0.07645188  0.30737508     1.04200
O10         O  0.17957957  0.10424485  0.37341457    -0.83700
O11         O  0.22488136  0.14293240  0.41785234    -0.80800
C12         C  0.24313334  0.17119944  0.42286741     0.99700
O13         O  0.27178748  0.17541501  0.40574717    -0.80800
O14         O  0.22729217  0.21593490  0.36010201    -0.83400
C15         C  0.20518295  0.22058272  0.33465768     1.04200
O16         O  0.20621216  0.20050057  0.30714357    -0.76300
O17         O  0.16475068  0.15132725  0.34012006    -0.76400
C18         C  0.15543282  0.12677170  0.36150664     1.04200
Cr19       Cr  0.23676972  0.10969700  0.37704834     1.93700
Cr20       Cr  0.26855840  0.18234773  0.35329691     1.93200
Cr21       Cr  0.20779521  0.14763776  0.30956976     1.39100
O22         O  0.23770113  0.14639690  0.34687279    -1.21500
O23         O  0.35202257  0.25930398  0.07399536    -0.83800
O24         O  0.39390668  0.30700685  0.11573505    -0.80800
C25         C  0.37233046  0.33253114  0.12622894     0.99700
O26         O  0.34561463  0.32446062  0.14562492    -0.80800
O27         O  0.29611941  0.28488489  0.18237146    -0.83500
C28         C  0.27417170  0.28084688  0.15663534     1.04200
O29         O  0.27926837  0.25706461  0.13290217    -0.76200
O30         O  0.32149955  0.21208903  0.08949227    -0.76400
C31         C  0.32378019  0.24016940  0.07115576     1.04200
O32         O  0.38586505  0.19305359  0.10867683    -0.83700
O33         O  0.42046727  0.24062559  0.15660410    -0.80800
C34         C  0.41922496  0.26086034  0.18417211     0.99700
O35         O  0.40134509  0.28926154  0.18238888    -0.80800
O36         O  0.35138379  0.24525605  0.21656851    -0.83400
C37         C  0.32732757  0.22132668  0.21808359     1.04200
O38         O  0.30423105  0.21807637  0.19328939    -0.76300
O39         O  0.34753690  0.17733583  0.15116384    -0.76400
C40         C  0.37120151  0.16833875  0.12857478     1.04200
Cr41       Cr  0.38674141  0.25002227  0.11485262     1.93700
Cr42       Cr  0.34871663  0.28378360  0.17986148     1.93200
Cr43       Cr  0.31505251  0.21836002  0.14171474     1.39100
O44         O  0.35012307  0.25080908  0.14529782    -1.21500
O45         O  0.16401203  0.42361153  0.23622149    -0.83800
O46         O  0.11262388  0.39165785  0.19144603    -0.80800
C47         C  0.12962807  0.37414535  0.16611527     0.99700
O48         O  0.14813105  0.34708825  0.17444181    -0.80800
O49         O  0.19149254  0.30495835  0.21300095    -0.83500
C50         C  0.21528982  0.32933319  0.21084503     1.04200
O51         O  0.21811624  0.35275070  0.23532268    -0.76200
O52         O  0.19256099  0.40378942  0.28295632    -0.76400
C53         C  0.19260975  0.42208289  0.25473282     1.04200
O54         O  0.12568144  0.39910805  0.30574851    -0.83700
O55         O  0.07835606  0.36231984  0.26165926    -0.80800
C56         C  0.07196233  0.33320523  0.24517914     0.99700
O57         O  0.08793424  0.32719745  0.21607194    -0.80800
O58         O  0.13217159  0.28538982  0.25958915    -0.83400
C59         C  0.15727119  0.28027389  0.28187232     1.04200
O60         O  0.18603346  0.29836969  0.27963014    -0.76300
O61         O  0.15578112  0.35010102  0.32139869    -0.76400
C62         C  0.13654588  0.37662875  0.33045084     1.04200
Cr63       Cr  0.12117685  0.39274127  0.24862149     1.93700
Cr64       Cr  0.14019317  0.31789244  0.21791706     1.93200
Cr65       Cr  0.18626503  0.35130840  0.27786187     1.39100
O66         O  0.14886128  0.35410927  0.24818904    -1.21500
O67         O  0.44717310  0.09789996  0.34703215    -0.83800
O68         O  0.46393655  0.06988813  0.28262527    -0.80800
C69         C  0.44367660  0.08285357  0.25829306     0.99700
O70         O  0.44648772  0.11494534  0.24744196    -0.80800
O71         O  0.46903386  0.18491173  0.24722696    -0.83500
C72         C  0.44767329  0.20223339  0.26632526     1.04200
O73         O  0.44405833  0.19544072  0.29959350    -0.76200
O74         O  0.44923456  0.15525514  0.36194002    -0.76400
C75         C  0.43192588  0.12535161  0.36035787     1.04200
O76         O  0.52796751  0.10665780  0.36193330    -0.83700
O77         O  0.53975782  0.08061066  0.29463175    -0.80800
C78         C  0.53969888  0.07701816  0.26077603     0.99700
O79         O  0.51792000  0.09409842  0.24185308    -0.80800
O80         O  0.53976784  0.16416314  0.25655379    -0.83400
C81         C  0.53825725  0.19652576  0.26709331     1.04200
O82         O  0.51962120  0.20552917  0.29444893    -0.76300
O83         O  0.53282992  0.16512076  0.35508201    -0.76400
C84         C  0.54628283  0.13544434  0.36558236     1.04200
Cr85       Cr  0.49437853  0.09265472  0.32076545     1.93700
Cr86       Cr  0.49319448  0.13924539  0.25273474     1.93200
Cr87       Cr  0.48700210  0.17639692  0.32698711     1.39100
O88         O  0.49101291  0.13617120  0.30054995    -1.21500
O89         O  0.55324567  0.90601987  0.34069389    -0.83800
O90         O  0.53091230  0.94121779  0.28170585    -0.80800
C91         C  0.54903331  0.92816711  0.25589112     0.99700
O92         O  0.54423026  0.89634563  0.24466285    -0.80800
O93         O  0.51778126  0.82704956  0.24443221    -0.83500
C94         C  0.53991315  0.80931247  0.26233271     1.04200
O95         O  0.54436823  0.81457658  0.29568892    -0.76200
O96         O  0.54186018  0.85132566  0.35933034    -0.76400
C97         C  0.56474152  0.87629956  0.35309366     1.04200
O98         O  0.47326715  0.90383929  0.36511147    -0.83700
O99         O  0.45630220  0.93459741  0.30007330    -0.80800
C100        C  0.45294342  0.93730050  0.26613998     0.99700
O101        O  0.47347447  0.92059200  0.24542365    -0.80800
O102        O  0.44854308  0.85184993  0.25677719    -0.83400
C103        C  0.44739846  0.81959889  0.26747021     1.04200
O104        O  0.46804521  0.80818335  0.29216442    -0.76300
O105        O  0.45891512  0.84799049  0.35279451    -0.76400
C106        C  0.45044238  0.87815128  0.36629900     1.04200
Cr107      Cr  0.50337987  0.91795044  0.32132114     1.93700
Cr108      Cr  0.49642815  0.87403540  0.25189508     1.93200
Cr109      Cr  0.50305957  0.83415115  0.32424780     1.39100
O110        O  0.50113246  0.87533176  0.29934752    -1.21500
O111        O  0.40510661  0.04419319  0.15438153    -0.83800
O112        O  0.43375667  0.03464720  0.21972341    -0.80800
C113        C  0.41984046  0.05820793  0.24040840     0.99700
O114        O  0.38740941  0.05652036  0.25023873    -0.80800
O115        O  0.31843386  0.03068604  0.25535383    -0.83500
C116        C  0.29892906  0.04711600  0.23351269     1.04200
O117        O  0.30623697  0.04745046  0.20027419    -0.76200
O118        O  0.34773709  0.03819532  0.13989017    -0.76400
C119        C  0.37679751  0.05703521  0.14043824     1.04200
O120        O  0.39891175  0.96268101  0.14586373    -0.83700
O121        O  0.42215323  0.95763415  0.21499073    -0.80800
C122        C  0.42728820  0.96094104  0.24851050     0.99700
O123        O  0.41271795  0.98619666  0.26544946    -0.80800
O124        O  0.34393065  0.96070862  0.25470081    -0.83400
C125        C  0.31181118  0.95822258  0.24390757     1.04200
O126        O  0.30126819  0.97259431  0.21456882    -0.76300
O127        O  0.34097373  0.95568181  0.15419403    -0.76400
C128        C  0.37077681  0.94320548  0.14310770     1.04200
Cr129      Cr  0.41145260  0.00005200  0.18452974     1.93700
Cr130      Cr  0.36587929  0.00838970  0.25218103     1.93200
Cr131      Cr  0.32788839  0.00319876  0.17811039     1.39100
O132        O  0.36813635  0.00436790  0.20443022    -1.21500
O133        O  0.59291356  0.96460284  0.15263619    -0.83800
O134        O  0.55879516  0.97514021  0.21569315    -0.80800
C135        C  0.57268831  0.95266754  0.23741924     0.99700
O136        O  0.60449283  0.95622562  0.24859672    -0.80800
O137        O  0.67143705  0.98465043  0.25707975    -0.83500
C138        C  0.69367944  0.97035010  0.23656443     1.04200
O139        O  0.68922127  0.96991790  0.20274630    -0.76200
O140        O  0.64984983  0.97587664  0.13966113    -0.76400
C141        C  0.62241925  0.95453959  0.13881468     1.04200
O142        O  0.59439348  0.04536100  0.14123925    -0.83700
O143        O  0.56688011  0.05256473  0.20880663    -0.80800
C144        C  0.56274927  0.05133002  0.24260840     0.99700
O145        O  0.57643982  0.02633151  0.26052317    -0.80800
O146        O  0.64511203  0.05363558  0.25590819    -0.83400
C147        C  0.67764391  0.05736611  0.24662594     1.04200
O148        O  0.68937838  0.04435227  0.21702172    -0.76300
O149        O  0.64993071  0.05908629  0.15514730    -0.76400
C150        C  0.61995156  0.06819134  0.14148082     1.04200
Cr151      Cr  0.58181115  0.00937187  0.18076395     1.93700
Cr152      Cr  0.62417375  0.00526557  0.25123843     1.93200
Cr153      Cr  0.66567189  0.01237828  0.17918394     1.39100
O154        O  0.62428719  0.00862850  0.20338105    -1.21500
O155        O  0.20078361  0.88713419  0.38363750    -0.83800
O156        O  0.24654459  0.84064040  0.42150351    -0.80800
C157        C  0.26641278  0.81295316  0.42153096     0.99700
O158        O  0.29611925  0.81423312  0.40573790    -0.80800
O159        O  0.25685610  0.78021619  0.35143680    -0.83500
C160        C  0.23557024  0.77898636  0.32494773     1.04200
O161        O  0.23426382  0.80448598  0.30250445    -0.76200
O162        O  0.18864994  0.84560173  0.34280210    -0.76400
C163        C  0.17742296  0.86751172  0.36629592     1.04200
O164        O  0.26913633  0.92366586  0.35650238    -0.83700
O165        O  0.31430181  0.88265516  0.39950829    -0.80800
C166        C  0.34105545  0.87297916  0.37905606     0.99700
O167        O  0.33534431  0.85192580  0.35313838    -0.80800
O168        O  0.30217155  0.81585355  0.30051694    -0.83400
C169        C  0.29826085  0.84141522  0.27851338     1.04200
O170        O  0.27511125  0.86590822  0.28355174    -0.76300
O171        O  0.22505298  0.90796712  0.32162620    -0.76400
C172        C  0.25195360  0.92735896  0.32739601     1.04200
Cr173      Cr  0.25787053  0.88218645  0.38895076     1.93700
Cr174      Cr  0.29527012  0.81743022  0.35288189     1.93200
Cr175      Cr  0.23288036  0.85593059  0.31471971     1.39100
O176        O  0.26197098  0.85189390  0.35227183    -1.21500
O177        O  0.39429852  0.69670003  0.12423918    -0.83800
O178        O  0.36123015  0.73476378  0.07098207    -0.80800
C179        C  0.33273586  0.74934788  0.06004688     0.99700
O180        O  0.32336982  0.77844635  0.07385315    -0.80800
O181        O  0.27895118  0.73070334  0.11610379    -0.83500
C182        C  0.27340766  0.71025474  0.14300430     1.04200
O183        O  0.28710364  0.71814837  0.17310228    -0.76200
O184        O  0.34663737  0.67944929  0.15584520    -0.76400
C185        C  0.37346779  0.67132675  0.13643633     1.04200
O186        O  0.41108471  0.77002019  0.15924514    -0.83700
O187        O  0.38172392  0.80844244  0.10543563    -0.80800
C188        C  0.36110599  0.83300966  0.11960543     0.99700
O189        O  0.33069556  0.82419569  0.13230467    -0.80800
O190        O  0.28342308  0.78415518  0.17128520    -0.83400
C191        C  0.30294983  0.79225378  0.19773525     1.04200
O192        O  0.33043007  0.77326832  0.20530905    -0.76300
O193        O  0.38976683  0.72829254  0.19428971    -0.76400
C194        C  0.40835627  0.75601265  0.18991383     1.04200
Cr195      Cr  0.38507168  0.75242685  0.11596102     1.93700
Cr196      Cr  0.30596943  0.77735717  0.12380574     1.93200
Cr197      Cr  0.33879214  0.72672113  0.17985397     1.39100
O198        O  0.34358818  0.75188746  0.13961032    -1.21500
O199        O  0.11150925  0.61951936  0.18073127    -0.83800
O200        O  0.15039543  0.57540759  0.22615863    -0.80800
C201        C  0.17917781  0.57054647  0.24349480     0.99700
O202        O  0.18469918  0.58844624  0.27139871    -0.80800
O203        O  0.22482574  0.63249713  0.22322715    -0.83500
C204        C  0.22798337  0.65700829  0.19964403     1.04200
O205        O  0.20977936  0.68548770  0.20290090    -0.76200
O206        O  0.15859931  0.65178463  0.16369586    -0.76400
C207        C  0.13317847  0.63081920  0.15557298     1.04200
O208        O  0.08581485  0.65851329  0.24909320    -0.83700
O209        O  0.12049040  0.61055527  0.29478917    -0.80800
C210        C  0.13755593  0.62858104  0.31966876     0.99700
O211        O  0.16382160  0.64841253  0.31078286    -0.80800
O212        O  0.20512973  0.69219685  0.26941532    -0.83400
C213        C  0.18232751  0.71759920  0.26919939     1.04200
O214        O  0.15631431  0.71756459  0.24724946    -0.76300
O215        O  0.10429104  0.68750886  0.20205047    -0.76400
C216        C  0.08634602  0.68695383  0.23049306     1.04200
Cr217      Cr  0.11854751  0.61726960  0.23771046     1.93700
Cr218      Cr  0.19293779  0.64058812  0.26654626     1.93200
Cr219      Cr  0.15700441  0.68361860  0.20614534     1.39100
O220        O  0.15587939  0.64705538  0.23702286    -1.21500
O221        O  0.35457069  0.54602341  0.90071377    -0.83800
O222        O  0.28995984  0.52922844  0.92864136    -0.80800
C223        C  0.26627946  0.54941177  0.91455179     0.99700
O224        O  0.25550321  0.54540075  0.88249868    -0.80800
O225        O  0.25515660  0.51954929  0.81281774    -0.83500
C226        C  0.27406040  0.54128172  0.79560579     1.04200
O227        O  0.30731673  0.54515287  0.80278556    -0.76200
O228        O  0.36994180  0.54181559  0.84358756    -0.76400
C229        C  0.36877868  0.56001448  0.87302179     1.04200
O230        O  0.37044317  0.46592828  0.89506379    -0.83700
O231        O  0.30242271  0.45320332  0.92014212    -0.80800
C232        C  0.26842595  0.45277877  0.92341295     0.99700
O233        O  0.24951654  0.47460570  0.90629679    -0.80800
O234        O  0.26494281  0.45002113  0.83784197    -0.83400
C235        C  0.27686637  0.44875128  0.80604112     1.04200
O236        O  0.30298063  0.46855448  0.79576918    -0.76300
O237        O  0.36351230  0.45783451  0.83701555    -0.76400
C238        C  0.37429222  0.44618142  0.86738455     1.04200
Cr239      Cr  0.32845981  0.49873331  0.90729360     1.93700
Cr240      Cr  0.26076883  0.49768080  0.86014671     1.93200
Cr241      Cr  0.33510463  0.50302857  0.82352628     1.39100
O242        O  0.30854783  0.50036038  0.86356090    -1.21500
O243        O  0.35257166  0.45798746  0.09122385    -0.83800
O244        O  0.28964753  0.47241174  0.05926499    -0.80800
C245        C  0.26625231  0.45063792  0.07169796     0.99700
O246        O  0.25420461  0.45320050  0.10333350    -0.80800
O247        O  0.25020269  0.47527400  0.17326209    -0.83500
C248        C  0.27030881  0.45528603  0.19137922     1.04200
O249        O  0.30385022  0.45371492  0.18524375    -0.76200
O250        O  0.36719087  0.46388705  0.14823493    -0.76400
C251        C  0.36580981  0.44460961  0.11961130     1.04200
O252        O  0.36500303  0.53976789  0.10018676    -0.83700
O253        O  0.29853071  0.54892449  0.07041976    -0.80800
C254        C  0.26489007  0.54752793  0.06492532     0.99700
O255        O  0.24595527  0.52492420  0.08124651    -0.80800
O256        O  0.25692618  0.54703333  0.15142094    -0.83400
C257        C  0.26512105  0.54575754  0.18430038     1.04200
O258        O  0.29258411  0.52849776  0.19521354    -0.76300
O259        O  0.35337632  0.54610502  0.15767748    -0.76400
C260        C  0.36525109  0.55928692  0.12853608     1.04200
Cr261      Cr  0.32567693  0.50448351  0.08389452     1.93700
Cr262      Cr  0.25592327  0.50021616  0.12726618     1.93200
Cr263      Cr  0.32859167  0.49852185  0.16771009     1.39100
O264        O  0.30375399  0.50055497  0.12634812    -1.21500
O265        O  0.16194382  0.40716140  0.04092134    -0.83800
O266        O  0.22619239  0.43802807  0.02549516    -0.80800
C267        C  0.24965605  0.42568624  0.04711960     0.99700
O268        O  0.26110308  0.39374477  0.04502053    -0.80800
O269        O  0.26495556  0.32380752  0.02171727    -0.83500
C270        C  0.24522802  0.30369903  0.03984825     1.04200
O271        O  0.21157735  0.30921283  0.04232227    -0.76200
O272        O  0.14850415  0.34936997  0.03690088    -0.76400
C273        C  0.14819901  0.37909530  0.05480211     1.04200
O274        O  0.14874607  0.39934606  0.96034970    -0.83700
O275        O  0.21648635  0.42540271  0.94915115    -0.80800
C276        C  0.25041014  0.42941750  0.94923071     0.99700
O277        O  0.26899842  0.41540054  0.97342727    -0.80800
O278        O  0.25788534  0.34560901  0.95103893    -0.83400
C279        C  0.24809586  0.31306795  0.95087441     1.04200
O280        O  0.21990435  0.30267926  0.96739818    -0.76300
O281        O  0.15847040  0.34168193  0.95323563    -0.76400
C282        C  0.14653548  0.37123564  0.94089578     1.04200
Cr283      Cr  0.18938500  0.41374408  0.99434947     1.93700
Cr284      Cr  0.25879268  0.36973824  0.99795615     1.93200
Cr285      Cr  0.18529623  0.32980947  0.99961046     1.39100
O286        O  0.21076365  0.37085914  0.99806715    -1.21500
O287        O  0.16420177  0.59521717  0.94259234    -0.83800
O288        O  0.22562996  0.56157108  0.96004035    -0.80800
C289        C  0.24860133  0.57422280  0.93814562     0.99700
O290        O  0.26026117  0.60597179  0.94068215    -0.80800
O291        O  0.26443830  0.67554698  0.96343648    -0.83500
C292        C  0.24408926  0.69507087  0.94498699     1.04200
O293        O  0.21038112  0.68963703  0.94398281    -0.76200
O294        O  0.14758184  0.65117860  0.95257262    -0.76400
C295        C  0.15077717  0.62434439  0.93098749     1.04200
O296        O  0.14691592  0.60125423  0.02275268    -0.83700
O297        O  0.21371833  0.57320408  0.03604406    -0.80800
C298        C  0.24769145  0.56970682  0.03737778     0.99700
O299        O  0.26713686  0.58321949  0.01329532    -0.80800
O300        O  0.25785388  0.65256969  0.03509284    -0.83400
C301        C  0.25012135  0.68547734  0.03439075     1.04200
O302        O  0.22198282  0.69675439  0.01853223    -0.76300
O303        O  0.16118924  0.65704553  0.03500497    -0.76400
C304        C  0.14727592  0.62745944  0.04491188     1.04200
Cr305      Cr  0.18850398  0.58617650  0.99017282     1.93700
Cr306      Cr  0.25852150  0.62924376  0.98802052     1.93200
Cr307      Cr  0.18587241  0.66991559  0.98793016     1.39100
O308        O  0.21071278  0.62864616  0.98810577    -1.21500
O309        O  0.18839020  0.10934412  0.62355928    -0.83800
O310        O  0.23310075  0.15497944  0.58365946    -0.80800
C311        C  0.25192594  0.18327247  0.58052082     0.99700
O312        O  0.27979326  0.18641754  0.59889927    -0.80800
O313        O  0.23018386  0.22142691  0.64360534    -0.83500
C314        C  0.20461867  0.22142792  0.66613088     1.04200
O315        O  0.20756569  0.20299126  0.69466238    -0.76200
O316        O  0.16973478  0.15151420  0.66110768    -0.76400
C317        C  0.16241740  0.12859625  0.63722589     1.04200
O318        O  0.25825066  0.08241718  0.66009889    -0.83700
O319        O  0.30211262  0.12235786  0.61464721    -0.80800
C320        C  0.32715317  0.13755305  0.63398581     0.99700
O321        O  0.31820510  0.16090516  0.65733697    -0.80800
O322        O  0.27456616  0.19954317  0.70330110    -0.83400
C323        C  0.27743526  0.17378924  0.72529428     1.04200
O324        O  0.25477262  0.14856279  0.72496418    -0.76300
O325        O  0.21222066  0.09713826  0.69314441    -0.76400
C326        C  0.24129357  0.08029843  0.68962064     1.04200
Cr327      Cr  0.24526563  0.11849851  0.62184971     1.93700
Cr328      Cr  0.27364666  0.19038790  0.65120141     1.93200
Cr329      Cr  0.21324838  0.15022239  0.69160107     1.39100
O330        O  0.24409657  0.15267878  0.65479223    -1.21500
O331        O  0.13114735  0.38929178  0.69315778    -0.83800
O332        O  0.07694171  0.35917404  0.73268894    -0.80800
C333        C  0.06592000  0.33080945  0.74747772     0.99700
O334        O  0.07888740  0.32235091  0.77731390    -0.80800
O335        O  0.12020410  0.27417878  0.73409518    -0.83500
C336        C  0.14662845  0.26702720  0.71377891     1.04200
O337        O  0.17682958  0.28133703  0.71985124    -0.76200
O338        O  0.15911689  0.33894295  0.67751402    -0.76400
C339        C  0.14174279  0.36685395  0.66842484     1.04200
O340        O  0.16731779  0.40797609  0.76483415    -0.83700
O341        O  0.11161930  0.38185607  0.80532778    -0.80800
C342        C  0.12492371  0.36187209  0.83082527     0.99700
O343        O  0.13773928  0.33130822  0.82323745    -0.80800
O344        O  0.17622739  0.28173522  0.78657793    -0.83400
C345        C  0.20441186  0.30025594  0.79083650     1.04200
O346        O  0.21114478  0.32684940  0.77037880    -0.76300
O347        O  0.20026649  0.38393841  0.72263858    -0.76400
C348        C  0.19716091  0.40483157  0.74891219     1.04200
Cr349      Cr  0.12268645  0.38245883  0.74923299     1.93700
Cr350      Cr  0.12876752  0.30434227  0.77814675     1.93200
Cr351      Cr  0.18440298  0.33324388  0.72453113     1.39100
O352        O  0.14504620  0.34026153  0.75044824    -1.21500
O353        O  0.39335093  0.19668459  0.89332791    -0.83800
O354        O  0.43442099  0.23861463  0.84833653    -0.80800
C355        C  0.43613991  0.25500630  0.81874474     0.99700
O356        O  0.42009296  0.28439539  0.81542898    -0.80800
O357        O  0.36781233  0.24142749  0.78095616    -0.83500
C358        C  0.34057266  0.22102541  0.77984352     1.04200
O359        O  0.31691087  0.22233476  0.80424623    -0.76200
O360        O  0.35427360  0.18118492  0.85110397    -0.76400
C361        C  0.37803323  0.17198393  0.87353398     1.04200
O362        O  0.36251399  0.26828393  0.92268240    -0.83700
O363        O  0.40817772  0.31009348  0.88099961    -0.80800
C364        C  0.38887056  0.33551069  0.86644052     0.99700
O365        O  0.36502760  0.32730495  0.84383559    -0.80800
O366        O  0.31479439  0.29028341  0.80815595    -0.83400
C367        C  0.29138911  0.28965551  0.83283123     1.04200
O368        O  0.29428578  0.26884056  0.85966628    -0.76300
O369        O  0.32904474  0.22268951  0.90879497    -0.76400
C370        C  0.33319644  0.25140320  0.92587198     1.04200
Cr371      Cr  0.39815483  0.25351714  0.88503165     1.93700
Cr372      Cr  0.36707341  0.28362058  0.81412018     1.93200
Cr373      Cr  0.32575926  0.22581288  0.85598591     1.39100
O374        O  0.36380660  0.25428936  0.85175188    -1.21500
O375        O  0.89468746  0.37111249  0.53496596    -0.83800
O376        O  0.92004559  0.30311448  0.54631933    -0.80800
C377        C  0.92484183  0.26937901  0.54491261     0.99700
O378        O  0.91052261  0.25124277  0.52026442    -0.80800
O379        O  0.83986725  0.26060413  0.54311771    -0.83500
C380        C  0.80729917  0.27049983  0.54348134     1.04200
O381        O  0.79729748  0.29940418  0.52787873    -0.76200
O382        O  0.83771976  0.35965774  0.54434931    -0.76400
C383        C  0.86756405  0.37174508  0.55583241     1.04200
O384        O  0.90179910  0.35718745  0.45451810    -0.83700
O385        O  0.93273329  0.29350242  0.46964945    -0.80800
C386        C  0.91958372  0.27147283  0.44694244     0.99700
O387        O  0.88731888  0.26102619  0.44868972    -0.80800
O388        O  0.81756908  0.25696946  0.47197248    -0.83400
C389        C  0.79804675  0.27777761  0.45420339     1.04200
O390        O  0.80430269  0.31129987  0.45311059    -0.76300
O391        O  0.84492330  0.37293580  0.46111229    -0.76400
C392        C  0.87353313  0.37130836  0.44156416     1.04200
Cr393      Cr  0.90872706  0.33032240  0.50111323     1.93700
Cr394      Cr  0.86401724  0.26154912  0.49607414     1.93200
Cr395      Cr  0.82492731  0.33518319  0.49703448     1.39100
O396        O  0.86560545  0.30938054  0.49752499    -1.21500
O397        O  0.10750662  0.36475922  0.46386899    -0.83800
O398        O  0.07377735  0.30076955  0.45008627    -0.80800
C399        C  0.06848399  0.26709631  0.44803987     0.99700
O400        O  0.08425526  0.24583443  0.46871002    -0.80800
O401        O  0.15434207  0.25379890  0.44790671    -0.83500
C402        C  0.18760961  0.25972604  0.44985194     1.04200
O403        O  0.19972425  0.28582978  0.46831045    -0.76200
O404        O  0.16277823  0.34813673  0.45195540    -0.76400
C405        C  0.13381006  0.36315340  0.44177842     1.04200
O406        O  0.10041310  0.34665634  0.54448786    -0.83700
O407        O  0.06354643  0.28704254  0.52530293    -0.80800
C408        C  0.07352390  0.25991337  0.54361559     0.99700
O409        O  0.10444845  0.24624833  0.54032693    -0.80800
O410        O  0.17480660  0.24314008  0.51992046    -0.83400
C411        C  0.19351468  0.26195377  0.54070871     1.04200
O412        O  0.18974348  0.29581925  0.54282677    -0.76300
O413        O  0.15662356  0.36154161  0.53431795    -0.76400
C414        C  0.12982906  0.35968400  0.55598507     1.04200
Cr415      Cr  0.08976980  0.32378048  0.49614094     1.93700
Cr416      Cr  0.12973827  0.25139589  0.49438543     1.93200
Cr417      Cr  0.17340523  0.32230406  0.49889590     1.39100
O418        O  0.13093898  0.29928035  0.49722732    -1.21500
O419        O  0.02555106  0.15019714  0.39446660    -0.83800
O420        O  0.04068537  0.21766597  0.41956928    -0.80800
C421        C  0.04193800  0.25146945  0.42402358     0.99700
O422        O  0.01835844  0.27136537  0.41045628    -0.80800
O423        O  0.03851982  0.26069362  0.34033242    -0.83500
C424        C  0.03803310  0.25089853  0.30784825     1.04200
O425        O  0.02013464  0.22326551  0.29779938    -0.76200
O426        O  0.03524475  0.16190308  0.33763587    -0.76400
C427        C  0.04597500  0.14826425  0.36704257     1.04200
O428        O  0.94652828  0.16806107  0.40360197    -0.83700
O429        O  0.96565271  0.23116523  0.43442554    -0.80800
C430        C  0.94380191  0.25436764  0.42204746     0.99700
O431        O  0.94535344  0.26505189  0.38989590    -0.80800
O432        O  0.96683995  0.26723412  0.31952430    -0.83400
C433        C  0.94721856  0.24694718  0.30114613     1.04200
O434        O  0.94491196  0.21361184  0.30766589    -0.76300
O435        O  0.95223926  0.15128770  0.34693551    -0.76400
C436        C  0.93324748  0.15320787  0.37589451     1.04200
Cr437      Cr  0.99432429  0.19279281  0.40952014     1.93700
Cr438      Cr  0.99201953  0.26197293  0.36521921     1.93200
Cr439      Cr  0.98866021  0.18829398  0.32619183     1.39100
O440        O  0.99104740  0.21404080  0.36677270    -1.21500
O441        O  0.95177631  0.16101084  0.58998065    -0.83800
O442        O  0.96838969  0.22476545  0.55830617    -0.80800
C443        C  0.94910209  0.25106457  0.56975733     0.99700
O444        O  0.95214386  0.26296486  0.60140158    -0.80800
O445        O  0.97314582  0.26546467  0.67154167    -0.83500
C446        C  0.95210890  0.24680579  0.69006886     1.04200
O447        O  0.94908889  0.21300694  0.68483056    -0.76200
O448        O  0.95640672  0.14745078  0.64761705    -0.76400
C449        C  0.93853428  0.14683269  0.61797966     1.04200
O450        O  0.03154444  0.14538282  0.59990183    -0.83700
O451        O  0.04585057  0.21042339  0.57245614    -0.80800
C452        C  0.04721018  0.24383932  0.56723792     0.99700
O453        O  0.02340689  0.26392443  0.57991512    -0.80800
O454        O  0.04478051  0.25365821  0.65019991    -0.83400
C455        C  0.04217859  0.24706296  0.68327804     1.04200
O456        O  0.02400163  0.22031181  0.69445092    -0.76300
O457        O  0.03923320  0.15808850  0.65692991    -0.76400
C458        C  0.05142017  0.14462673  0.62791202     1.04200
Cr459      Cr  0.99888969  0.18668678  0.58350648     1.93700
Cr460      Cr  0.99824189  0.25734171  0.62587587     1.93200
Cr461      Cr  0.99255204  0.18522787  0.66712736     1.39100
O462        O  0.99524293  0.20939659  0.62561192    -1.21500
O463        O  0.59225045  0.31789688  0.12254072    -0.83800
O464        O  0.63679290  0.27583558  0.08091491    -0.80800
C465        C  0.66617823  0.25910837  0.07766718     0.99700
O466        O  0.67021243  0.22990264  0.09405773    -0.80800
O467        O  0.70417780  0.27373967  0.14381750    -0.83500
C468        C  0.70617482  0.29592567  0.16945930     1.04200
O469        O  0.68440800  0.29407203  0.19566339    -0.76200
O470        O  0.63548657  0.33362069  0.16033669    -0.76400
C471        C  0.61272302  0.34261654  0.13692247     1.04200
O472        O  0.56382749  0.24623607  0.15441213    -0.83700
O473        O  0.60453813  0.20436206  0.10823831    -0.80800
C474        C  0.61936953  0.17906084  0.12749964     0.99700
O475        O  0.64270400  0.18742158  0.15062456    -0.80800
O476        O  0.67936498  0.22618419  0.19949206    -0.83400
C477        C  0.65354919  0.22414842  0.22170410     1.04200
O478        O  0.62832071  0.24678882  0.22087708    -0.76300
O479        O  0.57852792  0.29147147  0.18818249    -0.76400
C480        C  0.56172613  0.26241697  0.18422653     1.04200
Cr481      Cr  0.60063593  0.26104893  0.11790440     1.93700
Cr482      Cr  0.67219211  0.23132830  0.14713880     1.93200
Cr483      Cr  0.63168734  0.28947447  0.18935427     1.39100
O484        O  0.63464852  0.26057231  0.15133810    -1.21500
O485        O  0.68263099  0.13318396  0.40149527    -0.83800
O486        O  0.72627814  0.08900488  0.36095109    -0.80800
C487        C  0.74183445  0.08485209  0.33098638     0.99700
O488        O  0.77081713  0.10136191  0.32542216    -0.80800
O489        O  0.72697904  0.14722801  0.28633949    -0.83500
C490        C  0.70474355  0.17239243  0.28191627     1.04200
O491        O  0.70428117  0.19910940  0.30307238    -0.76200
O492        O  0.66523120  0.16422613  0.35385107    -0.76400
C493        C  0.65723191  0.14378095  0.37972638     1.04200
O494        O  0.75205166  0.17203535  0.42583973    -0.83700
O495        O  0.79644717  0.12203095  0.39007855    -0.80800
C496        C  0.82129745  0.14006471  0.37313806     0.99700
O497        O  0.81212920  0.16123420  0.34839783    -0.80800
O498        O  0.77171309  0.20585938  0.30859246    -0.83400
C499        C  0.77135100  0.23065578  0.33207069     1.04200
O500        O  0.74834178  0.23071007  0.35705289    -0.76300
O501        O  0.70386511  0.19980198  0.40855056    -0.76400
C502        C  0.73282963  0.20024159  0.42572282     1.04200
Cr503      Cr  0.73950173  0.13032291  0.39326300     1.93700
Cr504      Cr  0.76832339  0.15407397  0.31922257     1.93200
Cr505      Cr  0.70750390  0.19648646  0.35573559     1.39100
O506        O  0.73850072  0.16010675  0.35613474    -1.21500
O507        O  0.88301301  0.40100250  0.30393327    -0.83800
O508        O  0.91771231  0.35214270  0.25734263    -0.80800
C509        C  0.91714395  0.32422969  0.23769785     0.99700
O510        O  0.89878617  0.32457644  0.20952433    -0.80800
O511        O  0.84920103  0.29188150  0.25511692    -0.83500
C512        C  0.82473079  0.29102177  0.27864174     1.04200
O513        O  0.80149870  0.31590651  0.28078649    -0.76200
O514        O  0.84336635  0.36003862  0.32052081    -0.76400
C515        C  0.86755123  0.38222282  0.32919305     1.04200
O516        O  0.85062674  0.43412957  0.23576884    -0.83700
O517        O  0.89055454  0.39065741  0.18973124    -0.80800
C518        C  0.86823716  0.37954874  0.16503036     0.99700
O519        O  0.84221816  0.35968947  0.17389556    -0.80800
O520        O  0.79335833  0.32367163  0.21378981    -0.83400
C521        C  0.77119723  0.34938020  0.21659198     1.04200
O522        O  0.77671214  0.37478300  0.23855552    -0.76300
O523        O  0.81829012  0.42036846  0.28232549    -0.76400
C524        C  0.82207880  0.43803825  0.25390576     1.04200
Cr525      Cr  0.88414203  0.39325701  0.24678681     1.93700
Cr526      Cr  0.84609147  0.32693397  0.21522298     1.93200
Cr527      Cr  0.81188965  0.36774255  0.27831512     1.39100
O528        O  0.84739250  0.36282370  0.24677426    -1.21500
O529        O  0.77270946  0.83229758  0.38794039    -0.83800
O530        O  0.81431969  0.88727747  0.36114033    -0.80800
C531        C  0.84007188  0.87410182  0.34139742     0.99700
O532        O  0.83286206  0.86103699  0.31059591    -0.80800
O533        O  0.79302023  0.82583042  0.25843343    -0.83500
C534        C  0.80066874  0.79881335  0.27708841     1.04200
O535        O  0.78006266  0.78941888  0.30270328    -0.76200
O536        O  0.73463482  0.79562848  0.36119193    -0.76400
C537        C  0.75879543  0.80133684  0.38405755     1.04200
O538        O  0.70272832  0.86946964  0.36945038    -0.83700
O539        O  0.74240584  0.92279812  0.33664639    -0.80800
C540        C  0.76039969  0.93482477  0.31047537     0.99700
O541        O  0.78989275  0.92056151  0.30419786    -0.80800
O542        O  0.74188498  0.88298242  0.25677204    -0.83400
C543        C  0.71921895  0.85807078  0.25118051     1.04200
O544        O  0.72674855  0.82647825  0.26103323    -0.76300
O545        O  0.68565710  0.83846514  0.32147578    -0.76400
C546        C  0.67741891  0.85748044  0.34874720     1.04200
Cr547      Cr  0.75823142  0.87703709  0.36163724     1.93700
Cr548      Cr  0.78735368  0.87178204  0.28415596     1.93200
Cr549      Cr  0.73363048  0.81489203  0.31193041     1.39100
O550        O  0.75967774  0.85434397  0.31986187    -1.21500
O551        O  0.84134272  0.57837795  0.24268794    -0.83800
O552        O  0.89291432  0.60886959  0.19619802    -0.80800
C553        C  0.87486700  0.62646627  0.17179387     0.99700
O554        O  0.85535635  0.65236155  0.18171087    -0.80800
O555        O  0.81741542  0.69867036  0.22312016    -0.83500
C556        C  0.78974874  0.67910500  0.22666994     1.04200
O557        O  0.78885382  0.65381282  0.24933775    -0.76200
O558        O  0.81610461  0.59875330  0.29138540    -0.76400
C559        C  0.81379204  0.58112310  0.26270779     1.04200
O560        O  0.88398037  0.59857271  0.31035758    -0.83700
O561        O  0.93053381  0.63603572  0.26506298    -0.80800
C562        C  0.93682681  0.66445285  0.24739069     0.99700
O563        O  0.91929006  0.66988418  0.21911426    -0.80800
O564        O  0.87955607  0.71518090  0.26414882    -0.83400
C565        C  0.85494455  0.72413511  0.28573773     1.04200
O566        O  0.82859792  0.70364253  0.29219077    -0.76300
O567        O  0.85930620  0.64946740  0.32845074    -0.76400
C568        C  0.87621318  0.62117694  0.33600282     1.04200
Cr569      Cr  0.88614511  0.60695716  0.25355460     1.93700
Cr570      Cr  0.86773998  0.68196046  0.22423394     1.93200
Cr571      Cr  0.82527124  0.65100412  0.28809768     1.39100
O572        O  0.85974939  0.64663899  0.25530484    -1.21500
O573        O  0.65487058  0.74770161  0.07844058    -0.83800
O574        O  0.61245487  0.70410758  0.12084102    -0.80800
C575        C  0.63298176  0.67987586  0.13583730     0.99700
O576        O  0.65692085  0.68984178  0.15816592    -0.80800
O577        O  0.70211496  0.73448921  0.19680956    -0.83500
C578        C  0.72663409  0.73420202  0.17321833     1.04200
O579        O  0.72415426  0.75352452  0.14542031    -0.76200
O580        O  0.68924661  0.79311436  0.09222619    -0.76400
C581        C  0.68493923  0.76351673  0.07641760     1.04200
O582        O  0.61988681  0.81764376  0.10523101    -0.83700
O583        O  0.58154515  0.77384425  0.15343531    -0.80800
C584        C  0.57902984  0.75446678  0.18131976     0.99700
O585        O  0.59790719  0.72698226  0.18349743    -0.80800
O586        O  0.64211225  0.77862243  0.21745763    -0.83400
C587        C  0.66471872  0.80421669  0.21666002     1.04200
O588        O  0.69285468  0.80102126  0.19765904    -0.76300
O589        O  0.65829433  0.83696304  0.14619292    -0.76400
C590        C  0.63424993  0.84391931  0.12350402     1.04200
Cr591      Cr  0.61854152  0.76110785  0.11579613     1.93700
Cr592      Cr  0.65006391  0.73446255  0.18714345     1.93200
Cr593      Cr  0.68923605  0.79393770  0.14530297     1.39100
O594        O  0.65282975  0.76292000  0.14884836    -1.21500
O595        O  0.16681077  0.57958411  0.75014687    -0.83800
O596        O  0.12382305  0.62093062  0.79472677    -0.80800
C597        C  0.14464419  0.63596822  0.81853573     0.99700
O598        O  0.16799830  0.65891605  0.80835970    -0.80800
O599        O  0.21214186  0.69714551  0.76181084    -0.83500
C600        C  0.23638594  0.67323370  0.76095643     1.04200
O601        O  0.23341859  0.64600017  0.74092993    -0.76200
O602        O  0.19745237  0.59341191  0.70236936    -0.76400
C603        C  0.19577081  0.57766037  0.73214272     1.04200
O604        O  0.12779383  0.60521875  0.68186105    -0.83700
O605        O  0.09038051  0.65352645  0.72677618    -0.80800
C606        C  0.08876119  0.68185450  0.74587393     0.99700
O607        O  0.10829150  0.68402665  0.77286711    -0.80800
O608        O  0.15092382  0.71833966  0.71972801    -0.83400
C609        C  0.17273912  0.71790687  0.69344892     1.04200
O610        O  0.20082811  0.69880417  0.69550928    -0.76300
O611        O  0.16364099  0.64772870  0.66123772    -0.76400
C612        C  0.14025774  0.62407539  0.65522444     1.04200
Cr613      Cr  0.12846460  0.61607408  0.73808447     1.93700
Cr614      Cr  0.16010980  0.68789406  0.76371239     1.93200
Cr615      Cr  0.19696075  0.64645213  0.70229028     1.39100
O616        O  0.16204576  0.64965153  0.73503075    -1.21500
O617        O  0.35024239  0.74097621  0.91773663    -0.83800
O618        O  0.40263588  0.69664869  0.88709998    -0.80800
C619        C  0.38526209  0.67201639  0.86909122     0.99700
O620        O  0.36666453  0.68144607  0.84243641    -0.80800
O621        O  0.32683591  0.72168838  0.79747950    -0.83500
C622        C  0.29926532  0.72431434  0.81731107     1.04200
O623        O  0.29780951  0.74673898  0.84279151    -0.76200
O624        O  0.32324409  0.78891297  0.89818831    -0.76400
C625        C  0.32196498  0.75984043  0.91527654     1.04200
O626        O  0.39067773  0.81054642  0.89842837    -0.83700
O627        O  0.43875304  0.76678453  0.86131166    -0.80800
C628        C  0.44520364  0.75082837  0.83194342     0.99700
O629        O  0.42901578  0.72188726  0.82537818    -0.80800
O630        O  0.38674984  0.76522724  0.78007723    -0.83400
C631        C  0.36102212  0.78592732  0.77198996     1.04200
O632        O  0.33515806  0.79134801  0.79330770    -0.76300
O633        O  0.36530266  0.82833928  0.84783720    -0.76400
C634        C  0.38212029  0.83622797  0.87615476     1.04200
Cr635      Cr  0.39451859  0.75371576  0.88949597     1.93700
Cr636      Cr  0.37721621  0.72478023  0.81354079     1.93200
Cr637      Cr  0.33262625  0.78668608  0.84587842     1.39100
O638        O  0.36829178  0.75511894  0.84953897    -1.21500
O639        O  0.24419661  0.85109425  0.57270646    -0.83800
O640        O  0.20634814  0.88015195  0.62852631    -0.80800
C641        C  0.18141757  0.85824563  0.63938797     0.99700
O642        O  0.19024180  0.83005019  0.65657640    -0.80800
O643        O  0.23148630  0.76991982  0.66850254    -0.83500
C644        C  0.22371950  0.75870905  0.63740933     1.04200
O645        O  0.24456295  0.76594622  0.61140112    -0.76200
O646        O  0.28918402  0.81490020  0.57226432    -0.76400
C647        C  0.25918450  0.82355937  0.55988167     1.04200
O648        O  0.31778506  0.87198358  0.60765950    -0.83700
O649        O  0.27822619  0.89665900  0.66421940    -0.80800
C650        C  0.26367016  0.89261748  0.69463939     0.99700
O651        O  0.23868516  0.87042389  0.69910730    -0.80800
O652        O  0.28538613  0.81171140  0.70419424    -0.83400
C653        C  0.30498378  0.78518897  0.69478988     1.04200
O654        O  0.29801741  0.76794268  0.66648749    -0.76300
O655        O  0.33583003  0.82000285  0.63087204    -0.76400
C656        C  0.34331746  0.85147441  0.62005259     1.04200
Cr657      Cr  0.26189372  0.87265808  0.61911959     1.93700
Cr658      Cr  0.23833267  0.82105392  0.67960807     1.93200
Cr659      Cr  0.28987931  0.79408268  0.62094659     1.39100
O660        O  0.26314936  0.82965653  0.63980544    -1.21500
O661        O  0.60513790  0.04339105  0.85548684    -0.83800
O662        O  0.57786110  0.05528935  0.78858829    -0.80800
C663        C  0.57291164  0.05480680  0.75492713     0.99700
O664        O  0.58848871  0.03166487  0.73582101    -0.80800
O665        O  0.65785712  0.05722145  0.74620163    -0.83500
C666        C  0.69066377  0.05785679  0.75491547     1.04200
O667        O  0.70193120  0.04143656  0.78271595    -0.76200
O668        O  0.66061032  0.05746049  0.84186428    -0.76400
C669        C  0.63029884  0.06663339  0.85462402     1.04200
O670        O  0.60150912  0.96348976  0.84004750    -0.83700
O671        O  0.56914264  0.97835622  0.77670484    -0.80800
C672        C  0.58319816  0.95716746  0.75376090     0.99700
O673        O  0.61506637  0.96094107  0.74285366    -0.80800
O674        O  0.68355140  0.98650771  0.74029254    -0.83400
C675        C  0.70277945  0.96786378  0.76074430     1.04200
O676        O  0.69678992  0.96657021  0.79442730    -0.76300
O677        O  0.65696193  0.97528002  0.85762243    -0.76400
C678        C  0.62996859  0.95362886  0.85604997     1.04200
Cr679      Cr  0.59176999  0.01000628  0.81421564     1.93700
Cr680      Cr  0.63613535  0.00913266  0.74518181     1.93200
Cr681      Cr  0.67540840  0.01032277  0.81853102     1.39100
O682        O  0.63467009  0.00897490  0.79293939    -1.21500
O683        O  0.47284988  0.89441257  0.64060240    -0.83800
O684        O  0.46181664  0.92422743  0.70690662    -0.80800
C685        C  0.46266175  0.92991960  0.74053305     0.99700
O686        O  0.48801266  0.91802998  0.75927183    -0.80800
O687        O  0.46959078  0.84657282  0.75460735    -0.83500
C688        C  0.47112864  0.81351747  0.74690772     1.04200
O689        O  0.48716917  0.80254493  0.71856875    -0.76200
O690        O  0.46659924  0.83799945  0.65631694    -0.76400
C691        C  0.45349181  0.86606496  0.64192920     1.04200
O692        O  0.55347861  0.90697244  0.65280471    -0.83700
O693        O  0.53720481  0.94117258  0.71458632    -0.80800
C694        C  0.56047247  0.93069176  0.73734694     0.99700
O695        O  0.56086983  0.89902338  0.74928637    -0.80800
O696        O  0.54205911  0.82910823  0.75762373    -0.83400
C697        C  0.56104057  0.80990051  0.73768421     1.04200
O698        O  0.56113316  0.81394483  0.70385718    -0.76300
O699        O  0.54865268  0.84926155  0.63999743    -0.76400
C700        C  0.56723024  0.87855334  0.63983785     1.04200
Cr701      Cr  0.50681823  0.91322053  0.67974997     1.93700
Cr702      Cr  0.51503167  0.87318550  0.75107073     1.93200
Cr703      Cr  0.51522711  0.82972674  0.68014887     1.39100
O704        O  0.51276076  0.87184345  0.70332515    -1.21500
O705        O  0.40935865  0.96767157  0.85927290    -0.83800
O706        O  0.43372845  0.95469978  0.79171487    -0.80800
C707        C  0.43626046  0.95295706  0.75782004     0.99700
O708        O  0.41780546  0.97309414  0.73830438    -0.80800
O709        O  0.35045802  0.94793220  0.75593295    -0.83500
C710        C  0.31925429  0.94563419  0.76909559     1.04200
O711        O  0.30868720  0.96645474  0.79418925    -0.76200
O712        O  0.35157835  0.95739966  0.85305273    -0.76400
C713        C  0.38240448  0.94686169  0.86350208     1.04200
O714        O  0.41219075  0.04796698  0.84170972    -0.83700
O715        O  0.43957876  0.03070375  0.77660020    -0.80800
C716        C  0.42562998  0.04864845  0.75094276     0.99700
O717        O  0.39354958  0.04338552  0.74048579    -0.80800
O718        O  0.32337205  0.01717611  0.74518293    -0.83400
C719        C  0.30647440  0.03907629  0.76442346     1.04200
O720        O  0.31436779  0.04326843  0.79744294    -0.76300
O721        O  0.35608322  0.04096160  0.85953035    -0.76400
C722        C  0.38454513  0.06047253  0.85737172     1.04200
Cr723      Cr  0.41992431  0.00037787  0.81644103     1.93700
Cr724      Cr  0.37148779  0.99585866  0.74950669     1.93200
Cr725      Cr  0.33642192  0.00192425  0.82492965     1.39100
O726        O  0.37590685  0.00024829  0.79725928    -1.21500
O727        O  0.54263477  0.09805631  0.64801083    -0.83800
O728        O  0.52741500  0.06682639  0.71218669    -0.80800
C729        C  0.54717074  0.07895299  0.73775373     0.99700
O730        O  0.54375699  0.11066583  0.74956783    -0.80800
O731        O  0.52293567  0.18118631  0.74968414    -0.83500
C732        C  0.54328298  0.19939719  0.72989730     1.04200
O733        O  0.54552564  0.19321817  0.69623941    -0.76200
O734        O  0.53559693  0.15469792  0.63205327    -0.76400
C735        C  0.55479782  0.12596333  0.63256183     1.04200
O736        O  0.46155526  0.10668038  0.63466703    -0.83700
O737        O  0.44946775  0.07891108  0.69982162    -0.80800
C738        C  0.44907879  0.07456630  0.73340405     0.99700
O739        O  0.47237715  0.08952322  0.75262568    -0.80800
O740        O  0.45078041  0.15953313  0.74065931    -0.83400
C741        C  0.45257636  0.19236950  0.73253666     1.04200
O742        O  0.47102444  0.20292772  0.70586800    -0.76300
O743        O  0.45315329  0.16353799  0.64713667    -0.76400
C744        C  0.44044851  0.13375274  0.63626857     1.04200
Cr745      Cr  0.49577144  0.09098881  0.67470971     1.93700
Cr746      Cr  0.49751033  0.13527260  0.74408110     1.93200
Cr747      Cr  0.50110856  0.17469315  0.67087533     1.39100
O748        O  0.49948550  0.13368804  0.69627580    -1.21500
O749        O  0.91219933  0.65553974  0.45481131    -0.83800
O750        O  0.94408782  0.72005395  0.46686711    -0.80800
C751        C  0.93284931  0.74382327  0.44485321     0.99700
O752        O  0.90085254  0.75522382  0.44568147    -0.80800
O753        O  0.82928569  0.75608377  0.46348240    -0.83500
C754        C  0.81401858  0.73323611  0.44375364     1.04200
O755        O  0.81992941  0.69979917  0.44715015    -0.76200
O756        O  0.85668324  0.63814044  0.46555342    -0.76400
C757        C  0.88442971  0.63840875  0.44495912     1.04200
O758        O  0.90298273  0.64634524  0.53598869    -0.83700
O759        O  0.92929277  0.71414153  0.54289066    -0.80800
C760        C  0.93347758  0.74791531  0.54170765     0.99700
O761        O  0.91872283  0.76640632  0.51777690    -0.80800
O762        O  0.84829366  0.75699057  0.53692874    -0.83400
C763        C  0.81577516  0.74763142  0.53626801     1.04200
O764        O  0.80598180  0.71905253  0.52001149    -0.76300
O765        O  0.84657455  0.66085130  0.54514635    -0.76400
C766        C  0.87582746  0.64758422  0.55711970     1.04200
Cr767      Cr  0.91877806  0.68503624  0.49967634     1.93700
Cr768      Cr  0.87430696  0.75442045  0.49126742     1.93200
Cr769      Cr  0.83578563  0.68049527  0.49490934     1.39100
O770        O  0.87632235  0.70640979  0.49450722    -1.21500
O771        O  0.97026166  0.85883545  0.38407402    -0.83800
O772        O  0.95759518  0.79311397  0.41302461    -0.80800
C773        C  0.95854709  0.75987309  0.42005060     0.99700
O774        O  0.98384720  0.74071885  0.40822166    -0.80800
O775        O  0.96435409  0.74573135  0.33699748    -0.83500
C776        C  0.96573872  0.75260663  0.30386298     1.04200
O777        O  0.98209879  0.78055336  0.29223537    -0.76200
O778        O  0.96303313  0.84301122  0.32782122    -0.76400
C779        C  0.95042039  0.85732048  0.35606009     1.04200
O780        O  0.05071459  0.84472975  0.39615461    -0.83700
O781        O  0.03379330  0.78310428  0.43022592    -0.80800
C782        C  0.05672407  0.76011459  0.41906119     0.99700
O783        O  0.05667267  0.74888136  0.38711532    -0.80800
O784        O  0.03685949  0.74126226  0.31686131    -0.83400
C785        C  0.05547706  0.76172948  0.29754840     1.04200
O786        O  0.05638317  0.79525823  0.30309665    -0.76300
O787        O  0.04521073  0.85847669  0.33877678    -0.76400
C788        C  0.06440722  0.85744218  0.36765930     1.04200
Cr789      Cr  0.00353739  0.81898892  0.40258534     1.93700
Cr790      Cr  0.01042726  0.74793092  0.36225663     1.93200
Cr791      Cr  0.01104959  0.81889979  0.31915353     1.39100
O792        O  0.00890328  0.79562700  0.36110371    -1.21500
O793        O  0.10883972  0.63704602  0.52329483    -0.83800
O794        O  0.08245963  0.70356867  0.54118115    -0.80800
C795        C  0.07822681  0.73737712  0.54275526     0.99700
O796        O  0.09187751  0.75720673  0.51903627    -0.80800
O797        O  0.16232035  0.74683856  0.53849612    -0.83500
C798        C  0.19525885  0.73959280  0.53574658     1.04200
O799        O  0.20560192  0.71137537  0.51918983    -0.76200
O800        O  0.16472539  0.65077970  0.53542943    -0.76400
C801        C  0.13511489  0.63690761  0.54530767     1.04200
O802        O  0.10023602  0.65705303  0.44454549    -0.83700
O803        O  0.06797070  0.71941627  0.46556035    -0.80800
C804        C  0.08056199  0.74321266  0.44438224     0.99700
O805        O  0.11277294  0.75350965  0.44613865    -0.80800
O806        O  0.18265559  0.75502482  0.46620708    -0.83400
C807        C  0.20160992  0.73483819  0.44695636     1.04200
O808        O  0.19570452  0.70129045  0.44487037    -0.76300
O809        O  0.15615963  0.63881166  0.45242937    -0.76400
C810        C  0.12828290  0.64198036  0.43201218     1.04200
Cr811      Cr  0.09321768  0.68022878  0.49336317     1.93700
Cr812      Cr  0.13731415  0.74938750  0.49234553     1.93200
Cr813      Cr  0.17682106  0.67612085  0.48855896     1.39100
O814        O  0.13600801  0.70167714  0.49055723    -1.21500
O815        O  0.05784884  0.84199309  0.59505627    -0.83800
O816        O  0.03697240  0.78220817  0.55874953    -0.80800
C817        C  0.05450938  0.75464516  0.56904295     0.99700
O818        O  0.05091398  0.74211882  0.60040956    -0.80800
O819        O  0.03207341  0.74334303  0.67129017    -0.83500
C820        C  0.05229547  0.76278138  0.68986731     1.04200
O821        O  0.05391850  0.79668395  0.68588720    -0.76200
O822        O  0.04571892  0.86079582  0.64950648    -0.76400
C823        C  0.06868170  0.85609971  0.62422463     1.04200
O824        O  0.97719031  0.86328374  0.60028563    -0.83700
O825        O  0.96212313  0.79849812  0.56886406    -0.80800
C826        C  0.95857252  0.76464964  0.56618675     0.99700
O827        O  0.97853810  0.74350003  0.58295773    -0.80800
O828        O  0.95966756  0.75252206  0.65344903    -0.83400
C829        C  0.96186016  0.76073159  0.68627812     1.04200
O830        O  0.97982940  0.78794394  0.69629354    -0.76300
O831        O  0.96336003  0.84820299  0.65545138    -0.76400
C832        C  0.95429511  0.86300464  0.62602189     1.04200
Cr833      Cr  0.00872552  0.82060831  0.58429937     1.93700
Cr834      Cr  0.00552176  0.74964691  0.62708067     1.93200
Cr835      Cr  0.01021612  0.82262864  0.66786793     1.39100
O836        O  0.00872964  0.79758940  0.62641117    -1.21500
O837        O  0.81856881  0.90285743  0.61821284    -0.83800
O838        O  0.77391802  0.85978680  0.57711107    -0.80800
C839        C  0.75690898  0.83052053  0.57316776     0.99700
O840        O  0.72930388  0.82471568  0.59164688    -0.80800
O841        O  0.77587849  0.79079781  0.63949041    -0.83500
C842        C  0.79823937  0.78856525  0.66502043     1.04200
O843        O  0.79664152  0.81033214  0.69118074    -0.76200
O844        O  0.83567528  0.85856499  0.65400063    -0.76400
C845        C  0.84382909  0.88193782  0.63090539     1.04200
O846        O  0.74855454  0.93069191  0.65515300    -0.83700
O847        O  0.70427100  0.89127256  0.60835702    -0.80800
C848        C  0.67942431  0.87513840  0.62719383     0.99700
O849        O  0.68862794  0.85141833  0.64959244    -0.80800
O850        O  0.72987418  0.81567017  0.69704258    -0.83400
C851        C  0.72973163  0.84078507  0.72021642     1.04200
O852        O  0.75183053  0.86643941  0.71833146    -0.76300
O853        O  0.79629637  0.91576116  0.68482879    -0.76400
C854        C  0.76722069  0.93273548  0.68362425     1.04200
Cr855      Cr  0.76133095  0.89501812  0.61606413     1.93700
Cr856      Cr  0.73310808  0.82269101  0.64459573     1.93200
Cr857      Cr  0.79297488  0.86277476  0.68506814     1.39100
O858        O  0.76233688  0.86031592  0.64832336    -1.21500
O859        O  0.89802924  0.61900715  0.80845903    -0.83800
O860        O  0.84896180  0.58571160  0.76549108    -0.80800
C861        C  0.81887245  0.58694219  0.74999037     0.99700
O862        O  0.81614027  0.60452435  0.72127007    -0.80800
O863        O  0.79171530  0.65650855  0.76731208    -0.83500
C864        C  0.79461479  0.68047896  0.79110903     1.04200
O865        O  0.81800622  0.70513110  0.78805244    -0.76200
O866        O  0.86293464  0.66377570  0.82597042    -0.76400
C867        C  0.88046258  0.63589090  0.83387674     1.04200
O868        O  0.93121223  0.64879979  0.73721637    -0.83700
O869        O  0.88405693  0.61153125  0.69405554    -0.80800
C870        C  0.87134812  0.63326226  0.66947411     0.99700
O871        O  0.85030892  0.65823610  0.67885897    -0.80800
O872        O  0.82133698  0.71031142  0.72068595    -0.83400
C873        C  0.84922809  0.72982759  0.71846054     1.04200
O874        O  0.87521303  0.72524510  0.73985804    -0.76300
O875        O  0.92181343  0.68441890  0.78233906    -0.76400
C876        C  0.93706170  0.67836039  0.75282143     1.04200
Cr877      Cr  0.88945089  0.61793732  0.75130597     1.93700
Cr878      Cr  0.82195798  0.65736016  0.72392291     1.93200
Cr879      Cr  0.86932029  0.69278642  0.78190501     1.39100
O880        O  0.86060593  0.65596806  0.75219309    -1.21500
O881        O  0.62648974  0.81898363  0.89469437    -0.83800
O882        O  0.59036924  0.77266367  0.84672962    -0.80800
C883        C  0.59046253  0.75191529  0.81950045     0.99700
O884        O  0.60739869  0.72289290  0.82135323    -0.80800
O885        O  0.65799743  0.76386891  0.78641860    -0.83500
C886        C  0.68144404  0.78821059  0.78425898     1.04200
O887        O  0.70531338  0.79201503  0.80830478    -0.76200
O888        O  0.66444671  0.83360342  0.85164438    -0.76400
C889        C  0.64090501  0.84319479  0.87404837     1.04200
O890        O  0.65859788  0.75108612  0.92865009    -0.83700
O891        O  0.61404498  0.70560427  0.88711650    -0.80800
C892        C  0.63470947  0.67932682  0.87683826     0.99700
O893        O  0.66246706  0.68652753  0.85866760    -0.80800
O894        O  0.71291858  0.72367033  0.82054483    -0.83400
C895        C  0.73576222  0.72865940  0.84535067     1.04200
O896        O  0.73142353  0.75294896  0.86852648    -0.76300
O897        O  0.69125679  0.79692055  0.91303508    -0.76400
C898        C  0.68808070  0.76836467  0.93078700     1.04200
Cr899      Cr  0.62381300  0.76209224  0.88828565     1.93700
Cr900      Cr  0.66030428  0.72639666  0.82364305     1.93200
Cr901      Cr  0.69606531  0.79174167  0.86040301     1.39100
O902        O  0.66018142  0.76003984  0.85756229    -1.21500
O903        O  0.86154740  0.60325117  0.03643951    -0.83800
O904        O  0.79562181  0.57863339  0.05378447    -0.80800
C905        C  0.76186246  0.57688733  0.05739461     0.99700
O906        O  0.74147226  0.59284462  0.03587488    -0.80800
O907        O  0.75566781  0.66322777  0.05526179    -0.83500
C908        C  0.76618834  0.69545347  0.05319359     1.04200
O909        O  0.79330035  0.70381949  0.03425244    -0.76200
O910        O  0.85076625  0.65949494  0.04924214    -0.76400
C911        C  0.86217216  0.62883305  0.05932230     1.04200
O912        O  0.84123639  0.59722958  0.95678385    -0.83700
O913        O  0.77729980  0.56749072  0.97790883    -0.80800
C914        C  0.75104093  0.58018578  0.95978808     0.99700
O915        O  0.74048110  0.61222794  0.96375503    -0.80800
O916        O  0.74501605  0.68290888  0.98350486    -0.83400
C917        C  0.76477948  0.70110421  0.96320773     1.04200
O918        O  0.79833494  0.69436701  0.95990287    -0.76300
O919        O  0.86129782  0.65232842  0.96533250    -0.76400
C920        C  0.85812282  0.62453633  0.94484271     1.04200
Cr921      Cr  0.81784924  0.59022984  0.00587612     1.93700
Cr922      Cr  0.74992412  0.63754356  0.00925966     1.93200
Cr923      Cr  0.82517370  0.67355953  0.00248198     1.39100
O924        O  0.79769771  0.63389198  0.00468448    -1.21500
O925        O  0.64806612  0.46500829  0.90386856    -0.83800
O926        O  0.70991816  0.48004437  0.93870361    -0.80800
C927        C  0.73300699  0.45833614  0.92577950     0.99700
O928        O  0.74483917  0.46149198  0.89415189    -0.80800
O929        O  0.75225986  0.48713494  0.82568251    -0.83500
C930        C  0.73285015  0.46889856  0.80517608     1.04200
O931        O  0.69892901  0.46739980  0.80946480    -0.76200
O932        O  0.63458837  0.47427183  0.84688229    -0.76400
C933        C  0.63489808  0.45348184  0.87451604     0.99400
O934        O  0.63360430  0.54534528  0.89900183    -0.83700
O935        O  0.69952664  0.55714149  0.92878896    -0.80800
C936        C  0.73312533  0.55623380  0.93438927     0.99700
O937        O  0.75210654  0.53239641  0.91985297    -0.80800
O938        O  0.74719457  0.55743074  0.84918162    -0.83400
C939        C  0.73720708  0.55941456  0.81661017     1.04200
O940        O  0.70948253  0.54269805  0.80528670    -0.76300
O941        O  0.64849846  0.55757838  0.84353197    -0.76400
C942        C  0.63556387  0.56789361  0.87341116     1.04200
Cr943      Cr  0.67390024  0.51176763  0.91406506     1.93700
Cr944      Cr  0.74492200  0.50965248  0.87233922     1.93200
Cr945      Cr  0.67328875  0.51064455  0.83010288     1.39100
O946        O  0.69707293  0.51025757  0.87187348    -1.21500
O947        O  0.83570174  0.41238237  0.95369824    -0.83800
O948        O  0.77349390  0.44580077  0.97151311    -0.80800
C949        C  0.74999292  0.43341162  0.94996871     0.99700
O950        O  0.73863902  0.40148993  0.95218199    -0.80800
O951        O  0.73378294  0.33203209  0.97584706    -0.83500
C952        C  0.75342872  0.31227857  0.95710409     1.04200
O953        O  0.78725384  0.31697918  0.95549635    -0.76200
O954        O  0.85096565  0.35559850  0.96212031    -0.76400
C955        C  0.84995251  0.38368931  0.94189737     1.04200
O956        O  0.85302209  0.40597659  0.03274390    -0.83700
O957        O  0.78624428  0.43290461  0.04707062    -0.80800
C958        C  0.75237918  0.43680889  0.04848386     0.99700
O959        O  0.73264678  0.42418585  0.02427826    -0.80800
O960        O  0.74016516  0.35424081  0.04666410    -0.83400
C961        C  0.74979827  0.32166970  0.04752473     1.04200
O962        O  0.77757232  0.31077502  0.03059829    -0.76300
O963        O  0.83903704  0.35023633  0.04514725    -0.76400
C964        C  0.85318019  0.37985351  0.05477390     1.04200
Cr965      Cr  0.81095254  0.42081589  0.00105720     1.93700
Cr966      Cr  0.74050104  0.37808541  0.99954933     1.93200
Cr967      Cr  0.81311010  0.33713017  0.99864120     1.39100
O968        O  0.78846923  0.37839129  0.99910814    -1.21500
O969        O  0.65500198  0.55449125  0.10204830    -0.83800
O970        O  0.71758392  0.53531403  0.07126945    -0.80800
C971        C  0.74465764  0.55285717  0.08288178     0.99700
O972        O  0.75641225  0.54908371  0.11460384    -0.80800
O973        O  0.75241957  0.52884830  0.18551368    -0.83500
C974        C  0.73275726  0.54932984  0.20369075     1.04200
O975        O  0.69916714  0.55193591  0.19773273    -0.76200
O976        O  0.63655471  0.54651381  0.15763284    -0.76400
C977        C  0.64027344  0.56702628  0.13008195     1.04200
O978        O  0.63532973  0.47444266  0.10726164    -0.83700
O979        O  0.70207977  0.46038064  0.07981355    -0.80800
C980        C  0.73593815  0.45862434  0.07622722     0.99700
O981        O  0.75637358  0.47772727  0.09484094    -0.80800
O982        O  0.74066900  0.45695317  0.16374822    -0.83400
C983        C  0.73315644  0.45942175  0.19659156     1.04200
O984        O  0.70580191  0.47719968  0.20677536    -0.76300
O985        O  0.64579517  0.46308032  0.16408841    -0.76400
C986        C  0.63300740  0.45299558  0.13395956     1.04200
Cr987      Cr  0.67836538  0.50633680  0.09389633     1.93700
Cr988      Cr  0.74722152  0.50336577  0.13977914     1.93200
Cr989      Cr  0.67267133  0.50917154  0.17755744     1.39100
O990        O  0.69931835  0.50736102  0.13707681    -1.21500
O991        O  0.57549902  0.24730590  0.83681054    -0.83800
O992        O  0.61334229  0.20262159  0.88367327    -0.80800
C993        C  0.62824638  0.17772281  0.86404942     0.99700
O994        O  0.65168957  0.18644630  0.84109272    -0.80800
O995        O  0.69206943  0.22713486  0.79624417    -0.83500
C996        C  0.66706533  0.22705971  0.77310115     1.04200
O997        O  0.64243363  0.25030195  0.77429512    -0.76200
O998        O  0.59217344  0.29423620  0.80658614    -0.76400
C999        C  0.57511692  0.26514773  0.80774022     1.04200
O1000       O  0.60278760  0.31629745  0.87441017    -0.83700
O1001       O  0.64676335  0.27088366  0.91562791    -0.80800
C1002       C  0.67496931  0.25189195  0.91897971     0.99700
O1003       O  0.67774739  0.22373709  0.90082646    -0.80800
O1004       O  0.71550104  0.27052240  0.85613075    -0.83400
C1005       C  0.71791259  0.29480919  0.83258150     1.04200
O1006       O  0.69781380  0.29399328  0.80504462    -0.76300
O1007       O  0.64772736  0.33405514  0.83976251    -0.76400
C1008       C  0.62321297  0.34191393  0.86191464     1.04200
Cr1009     Cr  0.61081445  0.25939780  0.87642893     1.93700
Cr1010     Cr  0.68248237  0.22913305  0.84837025     1.93200
Cr1011     Cr  0.64510522  0.29109576  0.80826108     1.39100
O1012       O  0.64596467  0.25993629  0.84451745    -1.21500
O1013       O  0.91397853  0.35482612  0.73650006    -0.83800
O1014       O  0.87624278  0.40245710  0.69261332    -0.80800
C1015       C  0.86249866  0.38308879  0.66681246     0.99700
O1016       O  0.83878920  0.35993927  0.67420717    -0.80800
O1017       O  0.79895769  0.31261602  0.71220486    -0.83500
C1018       C  0.82419413  0.28968339  0.71227801     1.04200
O1019       O  0.84858853  0.29087337  0.73580733    -0.76200
O1020       O  0.89709334  0.32267695  0.78211662    -0.76400
C1021       C  0.91506509  0.32536294  0.75371427     1.04200
O1022       O  0.88460067  0.38928965  0.80598554    -0.83700
O1023       O  0.84062969  0.43130228  0.76171204    -0.80800
C1024       C  0.81231440  0.43456600  0.74286717     0.99700
O1025       O  0.81046843  0.41782009  0.71370257    -0.80800
O1026       O  0.77322228  0.37037393  0.75738143    -0.83400
C1027       C  0.77130937  0.34628144  0.78110775     1.04200
O1028       O  0.79145812  0.31886053  0.77917518    -0.76300
O1029       O  0.83981465  0.35332956  0.82141027    -0.76400
C1030       C  0.86382770  0.37552825  0.83058978     1.04200
Cr1031     Cr  0.87762495  0.39330965  0.74918106     1.93700
Cr1032     Cr  0.80709545  0.36493813  0.71649261     1.93200
Cr1033     Cr  0.84417628  0.32334934  0.77763332     1.39100
O1034       O  0.84316814  0.36066425  0.74777698    -1.21500
O1035       O  0.76050347  0.15516486  0.56561747    -0.83800
O1036       O  0.80359641  0.10990240  0.60627668    -0.80800
C1037       C  0.82827655  0.13050694  0.62025426     0.99700
O1038       O  0.81920652  0.15466652  0.64218922    -0.80800
O1039       O  0.77979348  0.20192912  0.68031953    -0.83500
C1040       C  0.77773220  0.22601063  0.65631474     1.04200
O1041       O  0.75597965  0.22307043  0.63045863    -0.76200
O1042       O  0.71402964  0.18707338  0.58041913    -0.76400
C1043       C  0.74347628  0.18454529  0.56397475     1.04200
O1044       O  0.69017388  0.12086370  0.59360837    -0.83700
O1045       O  0.73372772  0.08088086  0.63887559    -0.80800
C1046       C  0.75116135  0.07907058  0.66798799     0.99700
O1047       O  0.77995592  0.09644237  0.67093124    -0.80800
O1048       O  0.73596982  0.14524234  0.70722945    -0.83400
C1049       C  0.71380120  0.17081207  0.70998781     1.04200
O1050       O  0.71160200  0.19484038  0.68593641    -0.76300
O1051       O  0.67336165  0.15687787  0.63777314    -0.76400
C1052       C  0.66503185  0.13401041  0.61420845     1.04200
Cr1053     Cr  0.74692900  0.11814021  0.60239862     1.93700
Cr1054     Cr  0.77666462  0.14946466  0.67313528     1.93200
Cr1055     Cr  0.71577355  0.18839621  0.63354871     1.39100
O1056       O  0.74641588  0.15193172  0.63633716    -1.21500
C1057       C  0.82280550  0.25958401  0.68750218    -0.14800
C1058       C  0.79748902  0.25924202  0.66176222    -0.30000
H1059       H  0.83635480  0.23488627  0.69565998     0.14200
H1060       H  0.78529682  0.28406706  0.65203358     0.14800
C1061       C  0.74568887  0.32237342  0.83473484    -0.14800
C1062       C  0.74446450  0.34821718  0.80956399    -0.30000
H1063       H  0.77161066  0.31339266  0.84538508     0.14200
H1064       H  0.71862629  0.35997458  0.80179458     0.14800
C1065       C  0.69373355  0.17620804  0.74303375    -0.14800
C1066       C  0.66865900  0.20221091  0.74309634    -0.30000
H1067       H  0.70564053  0.16644138  0.76797288     0.14200
H1068       H  0.65531487  0.21040266  0.71829435     0.14800
C1069       C  0.86706660  0.38244474  0.87025215    -0.11700
C1070       C  0.86278216  0.38303225  0.90355412    -0.13200
C1071       C  0.73445546  0.28330111  0.94077421    -0.11700
C1072       C  0.70749106  0.26660904  0.93361291    -0.13200
C1073       C  0.75219104  0.45342942  0.77575141    -0.11700
C1074       C  0.77915276  0.44728731  0.75847254    -0.13200
C1075       C  0.62275008  0.41478162  0.87245288    -0.11700
C1076       C  0.61912583  0.38135246  0.87039556    -0.13200
C1077       C  0.62626947  0.64023969  0.88141457    -0.11700
C1078       C  0.62655431  0.60680888  0.87901032    -0.13200
C1079       C  0.72057903  0.75060453  0.94269283    -0.11700
C1080       C  0.74648792  0.73137534  0.94788490    -0.13200
C1081       C  0.76938536  0.68072241  0.82083709    -0.14800
C1082       C  0.76929890  0.70880261  0.84343549    -0.30000
H1083       H  0.74503564  0.66464849  0.81715861     0.14200
H1084       H  0.79391544  0.72368435  0.84937124     0.14800
C1085       C  0.87940389  0.62578562  0.87336535    -0.11700
C1086       C  0.87230985  0.62425495  0.90643405    -0.13200
C1087       C  0.78703981  0.57732355  0.76978536    -0.11700
C1088       C  0.76232252  0.57258221  0.79042218    -0.13200
C1089       C  0.70706991  0.83717815  0.75158207    -0.14800
C1090       C  0.68353571  0.80986805  0.75211389    -0.30000
H1091       H  0.71606585  0.85014631  0.77633329     0.14200
H1092       H  0.67288638  0.79829125  0.72732927     0.14800
C1093       C  0.82375367  0.75890404  0.66702877    -0.14800
C1094       C  0.84876167  0.75976221  0.69324783    -0.30000
H1095       H  0.81487402  0.73321649  0.65568544     0.14200
H1096       H  0.85959533  0.78536371  0.70297281     0.14800
C1097       C  0.95344210  0.73379881  0.71245867    -0.11700
C1098       C  0.94987984  0.70825727  0.73218462    -0.13200
C1099       C  0.88336468  0.88387414  0.62204928    -0.11700
C1100       C  0.91651649  0.87761563  0.62182889    -0.13200
C1101       C  0.87839793  0.63553605  0.59601621    -0.11700
C1102       C  0.87825358  0.63057632  0.62943423    -0.13200
C1103       C  0.78980567  0.77391205  0.54715515    -0.11700
C1104       C  0.77300738  0.80054021  0.55512661    -0.13200
C1105       C  0.59248568  0.12521484  0.61769340    -0.11700
C1106       C  0.62556835  0.12577078  0.61170544    -0.13200
C1107       C  0.55965638  0.22923959  0.74811292    -0.11700
C1108       C  0.56500928  0.24820508  0.77418307    -0.13200
C1109       C  0.57765911  0.78106364  0.75633304    -0.11700
C1110       C  0.58168358  0.76504147  0.78428058    -0.13200
C1111       C  0.60592571  0.87983031  0.62741524    -0.11700
C1112       C  0.63941703  0.88094310  0.62359811    -0.13200
C1113       C  0.73343769  0.06821339  0.70019726    -0.11700
C1114       C  0.71592044  0.06610795  0.72734099    -0.13200
C1115       C  0.62402263  0.10493777  0.86543176    -0.11700
C1116       C  0.62199381  0.13824377  0.86827108    -0.13200
C1117       C  0.63172761  0.91586713  0.87027008    -0.11700
C1118       C  0.63312084  0.88276754  0.87566936    -0.13200
C1119       C  0.75140890  0.94489958  0.71699332    -0.11700
C1120       C  0.73293841  0.95163244  0.74303746    -0.13200
C1121       C  0.38223501  0.86250728  0.62235728    -0.11700
C1122       C  0.41513154  0.86571500  0.62871385    -0.13200
C1123       C  0.27740098  0.91093088  0.72541901    -0.11700
C1124       C  0.29387688  0.92455894  0.74968740    -0.13200
C1125       C  0.10827278  0.86402475  0.62907972    -0.11700
C1126       C  0.14177589  0.86455827  0.63287965    -0.13200
C1127       C  0.23782752  0.79588603  0.54363276    -0.11700
C1128       C  0.21998070  0.76891499  0.54006644    -0.13200
C1129       C  0.35490459  0.79695447  0.73533224    -0.14800
C1130       C  0.33528225  0.77332612  0.71656179    -0.30000
H1131       H  0.35161558  0.82573727  0.73030776     0.14200
H1132       H  0.33742364  0.74443796  0.72189010     0.14800
C1133       C  0.38805751  0.87578497  0.88195265    -0.11700
C1134       C  0.38700139  0.90909393  0.87744637    -0.13200
C1135       C  0.45959228  0.77057056  0.80209367    -0.11700
C1136       C  0.46363882  0.78844929  0.77524169    -0.13200
C1137       C  0.16684676  0.73965794  0.66068763    -0.14800
C1138       C  0.19116818  0.73640747  0.63368232    -0.30000
H1139       H  0.15541320  0.76615542  0.66604648     0.14200
H1140       H  0.19689363  0.70956949  0.62319567     0.14800
C1141       C  0.26760137  0.70380027  0.80804225    -0.14800
C1142       C  0.26895708  0.67971016  0.78115646    -0.30000
H1143       H  0.24190334  0.71254056  0.81943894     0.14200
H1144       H  0.29441344  0.66941115  0.77060846     0.14800
C1145       C  0.13088987  0.61930044  0.61641079    -0.11700
C1146       C  0.13093702  0.62367857  0.58318748    -0.13200
C1147       C  0.06979201  0.74329496  0.71729643    -0.11700
C1148       C  0.07557606  0.71514647  0.73218670    -0.13200
C1149       C  0.62855451  0.63992798  0.13054188    -0.11700
C1150       C  0.63034859  0.60632337  0.13057417    -0.13200
C1151       C  0.74138135  0.72330564  0.06275350    -0.11700
C1152       C  0.71616736  0.74353004  0.06592534    -0.13200
C1153       C  0.75760560  0.68846621  0.20670875    -0.14800
C1154       C  0.75898934  0.71371833  0.18083490    -0.30000
H1155       H  0.73186869  0.67828141  0.21670909     0.14200
H1156       H  0.78450753  0.72280226  0.16937094     0.14800
C1157       C  0.88339115  0.61595319  0.37518839    -0.11700
C1158       C  0.88409992  0.62183905  0.40817315    -0.13200
C1159       C  0.95311439  0.69512488  0.26435416    -0.11700
C1160       C  0.95807533  0.72333855  0.27986627    -0.13200
C1161       C  0.87683998  0.62040270  0.13161483    -0.11700
C1162       C  0.87309671  0.62273113  0.09813422    -0.13200
C1163       C  0.77852861  0.57202797  0.24955893    -0.11700
C1164       C  0.75127917  0.56640974  0.23266421    -0.13200
C1165       C  0.68418337  0.86420499  0.23354030    -0.14800
C1166       C  0.65936376  0.83775019  0.23745120    -0.30000
H1167       H  0.68716580  0.87624667  0.20698329     0.14200
H1168       H  0.64769004  0.83340542  0.26397168     0.14800
C1169       C  0.83410191  0.77993443  0.26951982    -0.14800
C1170       C  0.85023246  0.76122808  0.29559053    -0.30000
H1171       H  0.84061231  0.77505907  0.24130878     0.14200
H1172       H  0.84295192  0.76646379  0.32353467     0.14800
C1173       C  0.87887292  0.87410579  0.35255597    -0.11700
C1174       C  0.91192962  0.86958522  0.35616171    -0.13200
C1175       C  0.77228929  0.77108711  0.40361506    -0.11700
C1176       C  0.78862538  0.74778337  0.41908314    -0.13200
C1177       C  0.87202160  0.38584024  0.12551794    -0.11700
C1178       C  0.86695924  0.38441666  0.09242576    -0.13200
C1179       C  0.79021344  0.45167858  0.23734468    -0.11700
C1180       C  0.76203333  0.45405340  0.22141312    -0.13200
C1181       C  0.79524029  0.26107362  0.32733009    -0.14800
C1182       C  0.81998095  0.25956191  0.30103993    -0.30000
H1183       H  0.78697118  0.28678784  0.33911787     0.14200
H1184       H  0.82979484  0.23382153  0.29059484     0.14800
C1185       C  0.73583354  0.32143282  0.17076308    -0.14800
C1186       C  0.73725481  0.34601328  0.19731878    -0.30000
H1187       H  0.76011962  0.31413737  0.15583936     0.14200
H1188       H  0.71287777  0.35509978  0.21098504     0.14800
C1189       C  0.65519667  0.19786686  0.25050719    -0.14800
C1190       C  0.68198473  0.17367315  0.25024418    -0.30000
H1191       H  0.64194830  0.20524595  0.27576407     0.14200
H1192       H  0.69381045  0.16431438  0.22497167     0.14800
C1193       C  0.61119197  0.38237786  0.12933032    -0.11700
C1194       C  0.61787560  0.41542439  0.12984943    -0.13200
C1195       C  0.72379679  0.29584940  0.05937897    -0.11700
C1196       C  0.69753312  0.27747961  0.06477301    -0.13200
C1197       C  0.90095962  0.13228168  0.61593216    -0.11700
C1198       C  0.86789182  0.12699195  0.61443830    -0.13200
C1199       C  0.93504482  0.26651117  0.71862941    -0.11700
C1200       C  0.92788031  0.29268805  0.73686947    -0.13200
C1201       C  0.93182203  0.26389157  0.27064482    -0.11700
C1202       C  0.92719225  0.29001059  0.25207390    -0.13200
C1203       C  0.86123531  0.13679829  0.37903538    -0.11700
C1204       C  0.89465322  0.14074936  0.37757623    -0.13200
C1205       C  0.76210651  0.21700839  0.55405182    -0.11700
C1206       C  0.78073680  0.24365568  0.55174532    -0.13200
C1207       C  0.87094923  0.38362323  0.59430253    -0.11700
C1208       C  0.87084955  0.38723453  0.62764516    -0.13200
C1209       C  0.87402412  0.38291951  0.40260722    -0.11700
C1210       C  0.87434031  0.38605126  0.36903960    -0.13200
C1211       C  0.74800855  0.23462018  0.43517989    -0.11700
C1212       C  0.76681667  0.26084232  0.43958500    -0.13200
C1213       C  0.38530063  0.09885354  0.87069324    -0.11700
C1214       C  0.38509767  0.13215139  0.87583452    -0.13200
C1215       C  0.44485536  0.23576837  0.78690444    -0.11700
C1216       C  0.44535073  0.21772132  0.76010783    -0.13200
C1217       C  0.25848862  0.30902326  0.82594249    -0.14800
C1218       C  0.22985220  0.28885537  0.81829145    -0.30000
H1219       H  0.26088187  0.33607199  0.81490016     0.14200
H1220       H  0.22810297  0.26116626  0.82785564     0.14800
C1221       C  0.13548088  0.37215375  0.62869264    -0.11700
C1222       C  0.13298880  0.36987548  0.59518234    -0.13200
C1223       C  0.05110136  0.30281353  0.72583450    -0.11700
C1224       C  0.04804844  0.27622977  0.70752002    -0.13200
C1225       C  0.33260590  0.19881943  0.74865743    -0.14800
C1226       C  0.30571282  0.17477985  0.75217614    -0.30000
H1227       H  0.34036048  0.20924433  0.72228248     0.14200
H1228       H  0.29954664  0.16272083  0.77829187     0.14800
C1229       C  0.14494777  0.24067108  0.68444516    -0.14800
C1230       C  0.17190725  0.24312355  0.66013505    -0.30000
H1231       H  0.13576644  0.21407613  0.69291622     0.14200
H1232       H  0.17705333  0.26917956  0.64750840     0.14800
C1233       C  0.36690242  0.13100759  0.62871352    -0.11700
C1234       C  0.40060841  0.13064388  0.62889179    -0.13200
C1235       C  0.25853718  0.06606492  0.72135657    -0.11700
C1236       C  0.27750803  0.05707575  0.74631946    -0.13200
C1237       C  0.08970172  0.13080437  0.62654374    -0.11700
C1238       C  0.12300350  0.12553327  0.62794003    -0.13200
C1239       C  0.22092071  0.24236445  0.55837221    -0.11700
C1240       C  0.23724669  0.21547191  0.56586247    -0.13200
C1241       C  0.26157466  0.72550058  0.92926007    -0.11700
C1242       C  0.28739143  0.74463456  0.92396647    -0.13200
C1243       C  0.14093859  0.62935364  0.85820843    -0.11700
C1244       C  0.14203794  0.62717972  0.89166854    -0.13200
C1245       C  0.27476289  0.28706233  0.94178404    -0.11700
C1246       C  0.30171296  0.26940989  0.93837238    -0.13200
C1247       C  0.13252281  0.37310518  0.90292492    -0.11700
C1248       C  0.12612045  0.37194904  0.86994863    -0.13200
C1249       C  0.38640705  0.63202693  0.87604583    -0.11700
C1250       C  0.38148652  0.59865035  0.87509481    -0.13200
C1251       C  0.25512739  0.55885228  0.76694362    -0.11700
C1252       C  0.22890358  0.56597244  0.74882217    -0.13200
C1253       C  0.38825860  0.40836575  0.87107207    -0.11700
C1254       C  0.39315034  0.37515953  0.87264553    -0.13200
C1255       C  0.25461258  0.43150284  0.77997362    -0.11700
C1256       C  0.22892555  0.42111568  0.76316658    -0.13200
C1257       C  0.12854740  0.63051692  0.39293928    -0.11700
C1258       C  0.12951108  0.62664396  0.35944304    -0.13200
C1259       C  0.07054731  0.74517767  0.26652784    -0.11700
C1260       C  0.07587923  0.72041692  0.24630230    -0.13200
C1261       C  0.12946726  0.62305252  0.11617435    -0.11700
C1262       C  0.13419323  0.62333841  0.08294479    -0.13200
C1263       C  0.20975473  0.55584661  0.22608044    -0.11700
C1264       C  0.23714881  0.55280629  0.20926222    -0.13200
C1265       C  0.24949522  0.67862410  0.14192557    -0.14800
C1266       C  0.25322434  0.65443832  0.16909420    -0.30000
H1267       H  0.22261339  0.68427119  0.13146780     0.14200
H1268       H  0.28019370  0.64534780  0.17642693     0.14800
C1269       C  0.37642690  0.59828503  0.12766543    -0.11700
C1270       C  0.37913784  0.63179161  0.12951086    -0.13200
C1271       C  0.30539734  0.72805648  0.04401000    -0.11700
C1272       C  0.27878845  0.71003670  0.04045668    -0.13200
C1273       C  0.31483559  0.83667127  0.24387491    -0.14800
C1274       C  0.29247965  0.82308706  0.21940011    -0.30000
H1275       H  0.34322175  0.82887040  0.24360354     0.14200
H1276       H  0.26378753  0.82984921  0.21999824     0.14800
C1277       C  0.21464786  0.74690247  0.31729408    -0.14800
C1278       C  0.18896240  0.74868998  0.29182093    -0.30000
H1279       H  0.22454330  0.72113551  0.32735128     0.14200
H1280       H  0.17773260  0.77445962  0.28321289     0.14800
C1281       C  0.10359712  0.86805880  0.36851991    -0.11700
C1282       C  0.13715778  0.87062614  0.37018891    -0.13200
C1283       C  0.25133832  0.77833571  0.42922966    -0.11700
C1284       C  0.23244103  0.75213757  0.43240668    -0.13200
C1285       C  0.62570346  0.88328527  0.11962870    -0.11700
C1286       C  0.62453015  0.91659467  0.12452222    -0.13200
C1287       C  0.72515877  0.95874614  0.25471034    -0.11700
C1288       C  0.74310712  0.95243363  0.28100645    -0.13200
C1289       C  0.72177611  0.07189117  0.30044720    -0.11700
C1290       C  0.70295853  0.06748876  0.27416417    -0.13200
C1291       C  0.61448091  0.10614684  0.12843916    -0.11700
C1292       C  0.61273938  0.13938584  0.12373488    -0.13200
C1293       C  0.37251757  0.90516550  0.12903662    -0.11700
C1294       C  0.37070213  0.87229333  0.12200816    -0.13200
C1295       C  0.28587376  0.94834321  0.27013319    -0.11700
C1296       C  0.26866590  0.94331462  0.29700485    -0.13200
C1297       C  0.55753882  0.78252159  0.24205095    -0.11700
C1298       C  0.56470687  0.76786650  0.21415123    -0.13200
C1299       C  0.63805230  0.86514308  0.35572974    -0.11700
C1300       C  0.60475800  0.87031668  0.35739750    -0.13200
C1301       C  0.42994661  0.79390549  0.24518225    -0.11700
C1302       C  0.42149704  0.77448736  0.22076177    -0.13200
C1303       C  0.41294616  0.88322486  0.38029029    -0.11700
C1304       C  0.37969720  0.88271653  0.38459509    -0.13200
C1305       C  0.61783744  0.13549320  0.38371527    -0.11700
C1306       C  0.58452753  0.13425634  0.37907485    -0.13200
C1307       C  0.55057442  0.24319011  0.21572479    -0.11700
C1308       C  0.54749110  0.22387279  0.24164106    -0.13200
C1309       C  0.13429572  0.38115642  0.09305820    -0.11700
C1310       C  0.12853965  0.38203468  0.12631089    -0.13200
C1311       C  0.22669782  0.43231074  0.23951681    -0.11700
C1312       C  0.25274633  0.43833845  0.22098772    -0.13200
C1313       C  0.13011196  0.38056129  0.37019604    -0.11700
C1314       C  0.13042990  0.37607903  0.40352146    -0.13200
C1315       C  0.05639214  0.30317756  0.26389512    -0.11700
C1316       C  0.04971633  0.27680887  0.28175448    -0.13200
C1317       C  0.24091620  0.30135618  0.15818648    -0.14800
C1318       C  0.24094043  0.32915435  0.18133944    -0.30000
H1319       H  0.21616635  0.28700389  0.15164489     0.14200
H1320       H  0.26550477  0.34472717  0.18563391     0.14800
C1321       C  0.37802848  0.12879664  0.12502300    -0.11700
C1322       C  0.37765322  0.09542262  0.12819024    -0.13200
C1323       C  0.42760469  0.24736922  0.21944653    -0.11700
C1324       C  0.43124384  0.23113276  0.24740124    -0.13200
C1325       C  0.37824265  0.37197549  0.11968522    -0.11700
C1326       C  0.37637191  0.40553500  0.11941724    -0.13200
C1327       C  0.26378836  0.27307931  0.05350561    -0.11700
C1328       C  0.29070649  0.25539427  0.05823005    -0.13200
C1329       C  0.29887875  0.17258454  0.24857882    -0.14800
C1330       C  0.32291898  0.19959384  0.25004950    -0.30000
H1331       H  0.29205949  0.15959276  0.22311748     0.14200
H1332       H  0.33142894  0.21129149  0.27561227     0.14800
C1333       C  0.15520338  0.25158013  0.30846977    -0.14800
C1334       C  0.18058838  0.25113587  0.33437407    -0.30000
H1335       H  0.14254312  0.22662317  0.29958407     0.14200
H1336       H  0.19111497  0.27626230  0.34531082     0.14800
C1337       C  0.08313669  0.13256308  0.36964678    -0.11700
C1338       C  0.11593577  0.12540954  0.36941472    -0.13200
C1339       C  0.21109228  0.23062806  0.44153410    -0.11700
C1340       C  0.22669961  0.20255671  0.43749605    -0.13200
C1341       C  0.35924207  0.12082975  0.37319647    -0.11700
C1342       C  0.39282374  0.12247050  0.37095886    -0.13200
C1343       C  0.26656619  0.06101029  0.24880683    -0.11700
C1344       C  0.24638985  0.06585216  0.27385262    -0.13200
loop_ 
_geom_bond_atom_site_label_1 
_geom_bond_atom_site_label_2 
_geom_bond_distance 
_geom_bond_site_symmetry_2 
_ccdc_geom_bond_type 
O1          Cr19   2.008       .  S
O1            C9   1.262       .  A
O2          Cr19   2.136       .  S
O2            C3   1.300       .  A
C3            O4   1.256       .  A
C3         C1341   1.499       .  S
O4          Cr20   1.966       .  S
O5          Cr20   1.958       .  S
O5            C6   1.261       .  A
C6            O7   1.257       .  A
C6         C1329   1.441       .  S
O7          Cr21   1.971       .  S
O8          Cr21   1.964       .  S
O8            C9   1.246       .  A
C9         C1344   1.432       .  S
O10         Cr19   2.129       .  S
O10          C18   1.300       .  A
O11         Cr19   1.996       .  S
O11          C12   1.258       .  A
C12          O13   1.245       .  A
C12        C1340   1.417       .  S
O13         Cr20   1.963       .  S
O14         Cr20   1.985       .  S
O14          C15   1.260       .  A
C15          O16   1.261       .  A
C15        C1334   1.452       .  S
O16         Cr21   1.959       .  S
O17         Cr21   1.958       .  S
O17          C18   1.255       .  A
C18        C1338   1.491       .  S
Cr19         O22   1.760       .  S
Cr20         O22   1.768       .  S
Cr21         O22   1.770       .  S
O23         Cr41   2.014       .  S
O23          C31   1.266       .  A
O24         Cr41   2.125       .  S
O24          C25   1.296       .  A
C25          O26   1.258       .  A
C25        C1325   1.496       .  S
O26         Cr42   1.973       .  S
O27         Cr42   1.949       .  S
O27          C28   1.260       .  A
C28          O29   1.257       .  A
C28        C1317   1.447       .  S
O29         Cr43   1.978       .  S
O30         Cr43   1.962       .  S
O30          C31   1.245       .  A
C31        C1328   1.430       .  S
O32         Cr41   2.120       .  S
O32          C40   1.294       .  A
O33         Cr41   2.017       .  S
O33          C34   1.266       .  A
C34          O35   1.244       .  A
C34        C1323   1.433       .  S
O35         Cr42   1.960       .  S
O36         Cr42   1.974       .  S
O36          C37   1.256       .  A
C37          O38   1.260       .  A
C37        C1330   1.441       .  S
O38         Cr43   1.951       .  S
O39         Cr43   1.969       .  S
O39          C40   1.256       .  A
C40        C1321   1.491       .  S
Cr41         O44   1.763       .  S
Cr42         O44   1.768       .  S
Cr43         O44   1.772       .  S
O45         Cr63   2.007       .  S
O45          C53   1.262       .  A
O46         Cr63   2.141       .  S
O46          C47   1.302       .  A
C47          O48   1.252       .  A
C47        C1310   1.504       .  S
O48         Cr64   1.962       .  S
O49         Cr64   1.966       .  S
O49          C50   1.263       .  A
C50          O51   1.257       .  A
C50        C1318   1.447       .  S
O51         Cr65   1.968       .  S
O52         Cr65   1.965       .  S
O52          C53   1.246       .  A
C53        C1311   1.432       .  S
O54         Cr63   2.134       .  S
O54          C62   1.301       .  A
O55         Cr63   2.003       .  S
O55          C56   1.260       .  A
C56          O57   1.249       .  A
C56        C1315   1.431       .  S
O57         Cr64   1.965       .  S
O58         Cr64   1.980       .  S
O58          C59   1.257       .  A
C59          O60   1.260       .  A
C59        C1333   1.451       .  S
O60         Cr65   1.960       .  S
O61         Cr65   1.968       .  S
O61          C62   1.258       .  A
C62        C1313   1.498       .  S
Cr63         O66   1.759       .  S
Cr64         O66   1.775       .  S
Cr65         O66   1.770       .  S
O67         Cr85   2.009       .  S
O67          C75   1.262       .  A
O68         Cr85   1.992       .  S
O68          C69   1.267       .  A
C69          O70   1.259       .  A
C69         C113   1.430       .  S
O70         Cr86   1.957       .  S
O71         Cr86   1.923       .  S
O71          C72   1.239       .  A
C72          O73   1.265       .  A
C72        C1324   1.417       .  S
O73         Cr87   2.013       .  S
O74         Cr87   2.060       .  S
O74          C75   1.279       .  A
C75        C1342   1.503       .  S
O76         Cr85   2.033       .  S
O76          C84   1.269       .  A
O77         Cr85   1.989       .  S
O77          C78   1.260       .  A
C78          O79   1.242       .  A
C78         C144   1.443       .  S
O79         Cr86   1.947       .  S
O80         Cr86   1.959       .  S
O80          C81   1.260       .  A
C81          O82   1.270       .  A
C81        C1308   1.426       .  S
O82         Cr87   2.018       .  S
O83         Cr87   2.033       .  S
O83          C84   1.268       .  A
C84        C1306   1.501       .  S
Cr85         O88   1.781       .  S
Cr86         O88   1.776       .  S
Cr87         O88   1.787       .  S
O89        Cr107   2.028       .  S
O89          C97   1.266       .  A
O90        Cr107   1.984       .  S
O90          C91   1.263       .  A
C91          O92   1.261       .  A
C91         C135   1.434       .  S
O92        Cr108   1.970       .  S
O93        Cr108   1.930       .  S
O93          C94   1.242       .  A
C94          O95   1.261       .  A
C94        C1297   1.404       .  S
O95        Cr109   1.995       .  S
O96        Cr109   2.036       .  S
O96          C97   1.274       .  A
C97        C1300   1.506       .  S
O98        Cr107   2.036       .  S
O98         C106   1.272       .  A
O99        Cr107   2.009       .  S
O99         C100   1.267       .  A
C100        O101   1.244       .  A
C100        C122   1.447       .  S
O101       Cr108   1.936       .  S
O102       Cr108   1.961       .  S
O102        C103   1.259       .  A
C103        O104   1.265       .  A
C103       C1301   1.414       .  S
O104       Cr109   2.002       .  S
O105       Cr109   2.012       .  S
O105        C106   1.262       .  A
C106       C1303   1.493       .  S
Cr107       O110   1.775       .  S
Cr108       O110   1.766       .  S
Cr109       O110   1.784       .  S
O111       Cr129   1.994       .  S
O111        C119   1.261       .  A
O112       Cr129   2.003       .  S
O112        C113   1.269       .  A
C113        O114   1.256       .  A
O114       Cr130   1.952       .  S
O115       Cr130   1.944       .  S
O115        C116   1.244       .  A
C116        O117   1.260       .  A
C116       C1343   1.421       .  S
O117       Cr131   1.999       .  S
O118       Cr131   2.056       .  S
O118        C119   1.281       .  A
C119       C1322   1.492       .  S
O120       Cr129   2.042   1_565  S
O120        C128   1.270       .  A
O121       Cr129   1.975   1_565  S
O121        C122   1.261       .  A
C122        O123   1.248       .  A
O123       Cr130   1.980   1_565  S
O124       Cr130   1.944   1_565  S
O124        C125   1.257       .  A
C125        O126   1.272       .  A
C125       C1295   1.414       .  S
O126       Cr131   2.020   1_565  S
O127       Cr131   2.027   1_565  S
O127        C128   1.264       .  A
C128       C1293   1.502       .  S
Cr129       O132   1.771       .  S
Cr130       O132   1.776       .  S
Cr131       O132   1.780       .  S
O133       Cr151   1.998   1_565  S
O133        C141   1.262       .  A
O134       Cr151   2.002   1_565  S
O134        C135   1.267       .  A
C135        O136   1.254       .  A
O136       Cr152   1.957   1_565  S
O137       Cr152   1.921   1_565  S
O137        C138   1.239       .  A
C138        O139   1.263       .  A
C138       C1287   1.412       .  S
O139       Cr153   1.999   1_565  S
O140       Cr153   2.074   1_565  S
O140        C141   1.286       .  A
C141       C1286   1.502       .  S
O142       Cr151   2.034       .  S
O142        C150   1.268       .  A
O143       Cr151   1.983       .  S
O143        C144   1.262       .  A
C144        O145   1.247       .  A
O145       Cr152   1.961       .  S
O146       Cr152   1.957       .  S
O146        C147   1.259       .  A
C147        O148   1.273       .  A
C147       C1290   1.433       .  S
O148       Cr153   2.031       .  S
O149       Cr153   2.031       .  S
O149        C150   1.265       .  A
C150       C1291   1.500       .  S
Cr151       O154   1.781       .  S
Cr152       O154   1.777       .  S
Cr153       O154   1.780       .  S
O155       Cr173   2.129       .  S
O155        C163   1.298       .  A
O156       Cr173   2.000       .  S
O156        C157   1.261       .  A
C157        O158   1.246       .  A
C157       C1283   1.426       .  S
O158       Cr174   1.961       .  S
O159       Cr174   1.979       .  S
O159        C160   1.258       .  A
C160        O161   1.259       .  A
C160       C1277   1.445       .  S
O161       Cr175   1.957       .  S
O162       Cr175   1.977       .  S
O162        C163   1.259       .  A
C163       C1282   1.501       .  S
O164       Cr173   1.995       .  S
O164        C172   1.259       .  A
O165       Cr173   2.124       .  S
O165        C166   1.297       .  A
C166        O167   1.253       .  A
C166       C1304   1.488       .  S
O167       Cr174   1.956       .  S
O168       Cr174   1.957       .  S
O168        C169   1.258       .  A
C169        O170   1.261       .  A
C169       C1273   1.432       .  S
O170       Cr175   1.978       .  S
O171       Cr175   1.964       .  S
O171        C172   1.245       .  A
C172       C1296   1.414       .  S
Cr173       O176   1.766       .  S
Cr174       O176   1.774       .  S
Cr175       O176   1.765       .  S
O177       Cr195   2.113       .  S
O177        C185   1.296       .  A
O178       Cr195   1.993       .  S
O178        C179   1.252       .  A
C179        O180   1.241       .  A
C179       C1271   1.412       .  S
O180       Cr196   1.959       .  S
O181       Cr196   2.014       .  S
O181        C182   1.269       .  A
C182        O183   1.258       .  A
C182       C1265   1.467       .  S
O183       Cr197   1.954       .  S
O184       Cr197   1.983       .  S
O184        C185   1.262       .  A
C185       C1270   1.500       .  S
O186       Cr195   1.978       .  S
O186        C194   1.253       .  A
O187       Cr195   2.114       .  S
O187        C188   1.297       .  A
C188        O189   1.262       .  A
C188       C1294   1.499       .  S
O189       Cr196   1.984       .  S
O190       Cr196   1.962       .  S
O190        C191   1.253       .  A
C191        O192   1.268       .  A
C191       C1274   1.447       .  S
O192       Cr197   1.987       .  S
O193       Cr197   1.961       .  S
O193        C194   1.245       .  A
C194       C1302   1.416       .  S
Cr195       O198   1.767       .  S
Cr196       O198   1.781       .  S
Cr197       O198   1.768       .  S
O199       Cr217   2.128       .  S
O199        C207   1.299       .  A
O200       Cr217   1.993       .  S
O200        C201   1.256       .  A
C201        O202   1.243       .  A
C201       C1263   1.411       .  S
O202       Cr218   1.962       .  S
O203       Cr218   2.014       .  S
O203        C204   1.266       .  A
C204        O205   1.257       .  A
C204       C1266   1.470       .  S
O205       Cr219   1.957       .  S
O206       Cr219   1.964       .  S
O206        C207   1.255       .  A
C207       C1261   1.493       .  S
O208       Cr217   1.994       .  S
O208        C216   1.259       .  A
O209       Cr217   2.130       .  S
O209        C210   1.300       .  A
C210        O211   1.261       .  A
C210       C1258   1.505       .  S
O211       Cr218   1.982       .  S
O212       Cr218   1.965       .  S
O212        C213   1.264       .  A
C213        O214   1.259       .  A
C213       C1278   1.443       .  S
O214       Cr219   1.972       .  S
O215       Cr219   1.961       .  S
O215        C216   1.245       .  A
C216       C1260   1.423       .  S
Cr217       O220   1.767       .  S
Cr218       O220   1.770       .  S
Cr219       O220   1.773       .  S
O221       Cr239   2.014       .  S
O221        C229   1.264       .  A
O222       Cr239   1.982       .  S
O222        C223   1.265       .  A
C223        O224   1.260       .  A
C223        C289   1.426       .  S
O224       Cr240   1.959       .  S
O225       Cr240   1.943       .  S
O225        C226   1.242       .  A
C226        O227   1.267       .  A
C226       C1251   1.429       .  S
O227       Cr241   2.020       .  S
O228       Cr241   2.066       .  S
O228        C229   1.281       .  A
C229       C1250   1.507       .  S
O230       Cr239   2.023       .  S
O230        C238   1.266       .  A
O231       Cr239   1.998       .  S
O231        C232   1.264       .  A
C232        O233   1.243       .  A
C232        C276   1.452       .  S
O233       Cr240   1.956       .  S
O234       Cr240   1.952       .  S
O234        C235   1.258       .  A
C235        O236   1.271       .  A
C235       C1255   1.419       .  S
O236       Cr241   2.022       .  S
O237       Cr241   2.039       .  S
O237        C238   1.269       .  A
C238       C1253   1.498       .  S
Cr239       O242   1.780       .  S
Cr240       O242   1.775       .  S
Cr241       O242   1.782       .  S
O243       Cr261   2.007       .  S
O243        C251   1.262       .  A
O244       Cr261   2.003       .  S
O244        C245   1.269       .  A
C245        O246   1.257       .  A
C245        C267   1.433       .  S
O246       Cr262   1.952       .  S
O247       Cr262   1.950       .  S
O247        C248   1.246       .  A
C248        O249   1.263       .  A
C248       C1312   1.421       .  S
O249       Cr263   2.003       .  S
O250       Cr263   2.050       .  S
O250        C251   1.278       .  A
C251       C1326   1.498       .  S
O252       Cr261   2.044       .  S
O252        C260   1.273       .  A
O253       Cr261   1.992       .  S
O253        C254   1.262       .  A
C254        O255   1.248       .  A
C254        C298   1.457       .  S
O255       Cr262   1.970       .  S
O256       Cr262   1.949       .  S
O256        C257   1.256       .  A
C257        O258   1.267       .  A
C257       C1264   1.412       .  S
O258       Cr263   2.010       .  S
O259       Cr263   2.020       .  S
O259        C260   1.264       .  A
C260       C1269   1.501       .  S
Cr261       O264   1.775       .  S
Cr262       O264   1.770       .  S
Cr263       O264   1.788       .  S
O265       Cr283   2.017   1_554  S
O265        C273   1.266       .  A
O266       Cr283   1.996   1_554  S
O266        C267   1.267       .  A
C267        O268   1.258       .  A
O268       Cr284   1.957   1_554  S
O269       Cr284   1.929   1_554  S
O269        C270   1.240       .  A
C270        O271   1.265       .  A
C270       C1327   1.419       .  S
O271       Cr285   2.008   1_554  S
O272       Cr285   2.069   1_554  S
O272        C273   1.283       .  A
C273       C1309   1.509       .  S
O274       Cr283   2.031       .  S
O274        C282   1.267       .  A
O275       Cr283   1.999       .  S
O275        C276   1.264       .  A
C276        O277   1.244       .  A
O277       Cr284   1.956       .  S
O278       Cr284   1.952       .  S
O278        C279   1.257       .  A
C279        O280   1.269       .  A
C279       C1245   1.419       .  S
O280       Cr285   2.017       .  S
O281       Cr285   2.032       .  S
O281        C282   1.266       .  A
C282       C1247   1.500       .  S
Cr283       O286   1.779       .  S
Cr284       O286   1.777       .  S
Cr285       O286   1.788       .  S
O287       Cr305   2.006       .  S
O287        C295   1.263       .  A
O288       Cr305   1.990       .  S
O288        C289   1.265       .  A
C289        O290   1.255       .  A
O290       Cr306   1.953       .  S
O291       Cr306   1.954       .  S
O291        C292   1.248       .  A
C292        O293   1.264       .  A
C292       C1241   1.424       .  S
O293       Cr307   2.002       .  S
O294       Cr307   2.048       .  S
O294        C295   1.279       .  A
C295       C1244   1.495       .  S
O296       Cr305   2.033   1_554  S
O296        C304   1.269       .  A
O297       Cr305   1.997   1_554  S
O297        C298   1.265       .  A
C298        O299   1.251       .  A
O299       Cr306   1.971   1_554  S
O300       Cr306   1.944   1_554  S
O300        C301   1.251       .  A
C301        O302   1.266       .  A
C301       C1272   1.414       .  S
O302       Cr307   2.012   1_554  S
O303       Cr307   2.025   1_554  S
O303        C304   1.265       .  A
C304       C1262   1.497       .  S
Cr305       O308   1.775       .  S
Cr306       O308   1.769       .  S
Cr307       O308   1.783       .  S
O309       Cr327   2.132       .  S
O309        C317   1.299       .  A
O310       Cr327   2.008       .  S
O310        C311   1.263       .  A
C311        O312   1.240       .  A
C311       C1240   1.419       .  S
O312       Cr328   1.955       .  S
O313       Cr328   1.997       .  S
O313        C314   1.261       .  A
C314        O315   1.263       .  A
C314       C1230   1.470       .  S
O315       Cr329   1.967       .  S
O316       Cr329   1.967       .  S
O316        C317   1.254       .  A
C317       C1238   1.502       .  S
O318       Cr327   2.007       .  S
O318        C326   1.263       .  A
O319       Cr327   2.125       .  S
O319        C320   1.298       .  A
C320        O321   1.266       .  A
C320       C1233   1.503       .  S
O321       Cr328   1.991       .  S
O322       Cr328   1.958       .  S
O322        C323   1.259       .  A
C323        O324   1.254       .  A
C323       C1226   1.444       .  S
O324       Cr329   1.972       .  S
O325       Cr329   1.966       .  S
O325        C326   1.250       .  A
C326       C1235   1.438       .  S
Cr327       O330   1.756       .  S
Cr328       O330   1.777       .  S
Cr329       O330   1.780       .  S
O331       Cr349   2.116       .  S
O331        C339   1.296       .  A
O332       Cr349   1.994       .  S
O332        C333   1.253       .  A
C333        O334   1.245       .  A
C333       C1223   1.419       .  S
O334       Cr350   1.963       .  S
O335       Cr350   2.000       .  S
O335        C336   1.262       .  A
C336        O337   1.256       .  A
C336       C1229   1.460       .  S
O337       Cr351   1.948       .  S
O338       Cr351   1.988       .  S
O338        C339   1.263       .  A
C339       C1221   1.503       .  S
O340       Cr349   1.987       .  S
O340        C348   1.257       .  A
O341       Cr349   2.117       .  S
O341        C342   1.297       .  A
C342        O343   1.258       .  A
C342       C1248   1.496       .  S
O343       Cr350   1.972       .  S
O344       Cr350   1.970       .  S
O344        C345   1.257       .  A
C345        O346   1.268       .  A
C345       C1218   1.449       .  S
O346       Cr351   1.979       .  S
O347       Cr351   1.967       .  S
O347        C348   1.247       .  A
C348       C1256   1.421       .  S
Cr349       O352   1.768       .  S
Cr350       O352   1.785       .  S
Cr351       O352   1.763       .  S
O353       Cr371   2.133       .  S
O353        C361   1.300       .  A
O354       Cr371   1.988       .  S
O354        C355   1.255       .  A
C355        O356   1.246       .  A
C355       C1215   1.414       .  S
O356       Cr372   1.962       .  S
O357       Cr372   1.985       .  S
O357        C358   1.259       .  A
C358        O359   1.259       .  A
C358       C1225   1.446       .  S
O359       Cr373   1.948       .  S
O360       Cr373   1.968       .  S
O360        C361   1.257       .  A
C361       C1214   1.500       .  S
O362       Cr371   1.995       .  S
O362        C370   1.257       .  A
O363       Cr371   2.131       .  S
O363        C364   1.299       .  A
C364        O365   1.253       .  A
C364       C1254   1.493       .  S
O365       Cr372   1.955       .  S
O366       Cr372   1.962       .  S
O366        C367   1.259       .  A
C367        O368   1.263       .  A
C367       C1217   1.436       .  S
O368       Cr373   1.978       .  S
O369       Cr373   1.963       .  S
O369        C370   1.245       .  A
C370       C1246   1.420       .  S
Cr371       O374   1.770       .  S
Cr372       O374   1.772       .  S
Cr373       O374   1.765       .  S
O375       Cr393   2.028       .  S
O375        C383   1.267       .  A
O376       Cr393   1.999       .  S
O376        C377   1.262       .  A
C377        O378   1.249       .  A
C377        C443   1.454       .  S
O378       Cr394   1.977       .  S
O379       Cr394   1.958       .  S
O379        C380   1.260       .  A
C380        O381   1.272       .  A
C380       C1206   1.430       .  S
O381       Cr395   2.026       .  S
O382       Cr395   2.027       .  S
O382        C383   1.264       .  A
C383       C1207   1.495       .  S
O384       Cr393   2.009       .  S
O384        C392   1.264       .  A
O385       Cr393   2.000       .  S
O385        C386   1.267       .  A
C386        O387   1.256       .  A
C386        C430   1.433       .  S
O387       Cr394   1.955       .  S
O388       Cr394   1.943       .  S
O388        C389   1.245       .  A
C389        O390   1.262       .  A
C389       C1212   1.421       .  S
O390       Cr395   2.001       .  S
O391       Cr395   2.067       .  S
O391        C392   1.284       .  A
C392       C1209   1.506       .  S
Cr393       O396   1.778       .  S
Cr394       O396   1.772       .  S
Cr395       O396   1.783       .  S
O397       Cr415   2.040       .  S
O397        C405   1.273       .  A
O398       Cr415   1.994       .  S
O398        C399   1.263       .  A
C399        O400   1.244       .  A
C399        C421   1.445       .  S
O400       Cr416   1.943       .  S
O401       Cr416   1.949       .  S
O401        C402   1.252       .  A
C402        O403   1.264       .  A
C402       C1339   1.418       .  S
O403       Cr417   2.012       .  S
O404       Cr417   2.024       .  S
O404        C405   1.265       .  A
C405       C1314   1.501       .  S
O406       Cr415   2.018       .  S
O406        C414   1.263       .  A
O407       Cr415   1.990       .  S
O407        C408   1.268       .  A
C408        O409   1.257       .  A
C408        C452   1.438       .  S
O409       Cr416   1.951       .  S
O410       Cr416   1.941       .  S
O410        C411   1.246       .  A
C411        O412   1.263       .  A
C411       C1239   1.408       .  S
O412       Cr417   1.994       .  S
O413       Cr417   2.052       .  S
O413        C414   1.277       .  A
C414       C1222   1.504       .  S
Cr415       O418   1.774       .  S
Cr416       O418   1.775       .  S
Cr417       O418   1.788       .  S
O419       Cr437   2.032   1_455  S
O419        C427   1.268       .  A
O420       Cr437   1.981   1_455  S
O420        C421   1.262       .  A
C421        O422   1.248       .  A
O422       Cr438   1.968   1_455  S
O423       Cr438   1.952   1_455  S
O423        C424   1.256       .  A
C424        O425   1.273       .  A
C424       C1316   1.429       .  S
O425       Cr439   2.035   1_455  S
O426       Cr439   2.027   1_455  S
O426        C427   1.265       .  A
C427       C1337   1.496       .  S
O428       Cr437   2.002       .  S
O428        C436   1.262       .  A
O429       Cr437   1.998       .  S
O429        C430   1.266       .  A
C430        O431   1.256       .  A
O431       Cr438   1.957       .  S
O432       Cr438   1.941       .  S
O432        C433   1.245       .  A
C433        O434   1.260       .  A
C433       C1201   1.413       .  S
O434       Cr439   1.993       .  S
O435       Cr439   2.070       .  S
O435        C436   1.284       .  A
C436       C1204   1.502       .  S
Cr437       O440   1.773       .  S
Cr438       O440   1.775       .  S
Cr439       O440   1.780       .  S
O441       Cr459   1.999       .  S
O441        C449   1.262       .  A
O442       Cr459   2.034       .  S
O442        C443   1.279       .  A
C443        O444   1.256       .  A
O444       Cr460   1.942       .  S
O445       Cr460   1.952       .  S
O445        C446   1.247       .  A
C446        O447   1.270       .  A
C446       C1199   1.431       .  S
O447       Cr461   2.018       .  S
O448       Cr461   2.063       .  S
O448        C449   1.281       .  A
C449       C1197   1.492       .  S
O450       Cr459   2.042   1_455  S
O450        C458   1.272       .  A
O451       Cr459   1.989   1_455  S
O451        C452   1.253       .  A
C452        O453   1.244       .  A
O453       Cr460   1.956   1_455  S
O454       Cr460   1.948   1_455  S
O454        C455   1.253       .  A
C455        O456   1.267       .  A
C455       C1224   1.419       .  S
O456       Cr461   2.014   1_455  S
O457       Cr461   2.034   1_455  S
O457        C458   1.267       .  A
C458       C1237   1.507       .  S
Cr459       O462   1.775       .  S
Cr460       O462   1.778       .  S
Cr461       O462   1.783       .  S
O463       Cr481   2.133       .  S
O463        C471   1.300       .  A
O464       Cr481   1.992       .  S
O464        C465   1.257       .  A
C465        O466   1.249       .  A
C465       C1196   1.427       .  S
O466       Cr482   1.968       .  S
O467       Cr482   1.969       .  S
O467        C468   1.256       .  A
C468        O469   1.263       .  A
C468       C1185   1.448       .  S
O469       Cr483   1.972       .  S
O470       Cr483   1.962       .  S
O470        C471   1.254       .  A
C471       C1193   1.500       .  S
O472       Cr481   1.996       .  S
O472        C480   1.257       .  A
O473       Cr481   2.132       .  S
O473        C474   1.300       .  A
C474        O475   1.254       .  A
C474       C1292   1.495       .  S
O475       Cr482   1.961       .  S
O476       Cr482   1.966       .  S
O476        C477   1.263       .  A
C477        O478   1.255       .  A
C477       C1189   1.446       .  S
O478       Cr483   1.970       .  S
O479       Cr483   1.969       .  S
O479        C480   1.250       .  A
C480       C1307   1.428       .  S
Cr481       O484   1.765       .  S
Cr482       O484   1.768       .  S
Cr483       O484   1.770       .  S
O485       Cr503   2.129       .  S
O485        C493   1.299       .  A
O486       Cr503   2.000       .  S
O486        C487   1.259       .  A
C487        O488   1.251       .  A
C487       C1289   1.434       .  S
O488       Cr504   1.967       .  S
O489       Cr504   1.971       .  S
O489        C490   1.254       .  A
C490        O491   1.261       .  A
C490       C1190   1.444       .  S
O491       Cr505   1.956       .  S
O492       Cr505   1.968       .  S
O492        C493   1.257       .  A
C493       C1305   1.497       .  S
O494       Cr503   2.011       .  S
O494        C502   1.263       .  A
O495       Cr503   2.132       .  S
O495        C496   1.298       .  A
C496        O497   1.253       .  A
C496       C1203   1.499       .  S
O497       Cr504   1.965       .  S
O498       Cr504   1.961       .  S
O498        C499   1.263       .  A
C499        O500   1.257       .  A
C499       C1181   1.442       .  S
O500       Cr505   1.971       .  S
O501       Cr505   1.964       .  S
O501        C502   1.246       .  A
C502       C1211   1.433       .  S
Cr503       O506   1.764       .  S
Cr504       O506   1.771       .  S
Cr505       O506   1.769       .  S
O507       Cr525   2.135       .  S
O507        C515   1.299       .  A
O508       Cr525   2.004       .  S
O508        C509   1.263       .  A
C509        O510   1.245       .  A
C509       C1202   1.424       .  S
O510       Cr526   1.963       .  S
O511       Cr526   1.971       .  S
O511        C512   1.257       .  A
C512        O513   1.263       .  A
C512       C1182   1.441       .  S
O513       Cr527   1.958       .  S
O514       Cr527   1.970       .  S
O514        C515   1.255       .  A
C515       C1210   1.503       .  S
O516       Cr525   1.999       .  S
O516        C524   1.260       .  A
O517       Cr525   2.128       .  S
O517        C518   1.298       .  A
C518        O519   1.255       .  A
C518       C1177   1.489       .  S
O519       Cr526   1.959       .  S
O520       Cr526   1.955       .  S
O520        C521   1.260       .  A
C521        O522   1.258       .  A
C521       C1186   1.449       .  S
O522       Cr527   1.982       .  S
O523       Cr527   1.967       .  S
O523        C524   1.248       .  A
C524       C1179   1.422       .  S
Cr525       O528   1.765       .  S
Cr526       O528   1.768       .  S
Cr527       O528   1.767       .  S
O529       Cr547   1.996       .  S
O529        C537   1.264       .  A
O530       Cr547   2.109       .  S
O530        C531   1.296       .  A
C531        O532   1.266       .  A
C531       C1173   1.494       .  S
O532       Cr548   1.988       .  S
O533       Cr548   1.959       .  S
O533        C534   1.249       .  A
C534        O535   1.266       .  A
C534       C1169   1.448       .  S
O535       Cr549   1.989       .  S
O536       Cr549   1.960       .  S
O536        C537   1.249       .  A
C537       C1175   1.425       .  S
O538       Cr547   2.093       .  S
O538        C546   1.288       .  A
O539       Cr547   2.018       .  S
O539        C540   1.258       .  A
C540        O541   1.234       .  A
C540       C1288   1.424       .  S
O541       Cr548   1.953       .  S
O542       Cr548   2.008       .  S
O542        C543   1.263       .  A
C543        O544   1.257       .  A
C543       C1165   1.469       .  S
O544       Cr549   1.950       .  S
O545       Cr549   2.009       .  S
O545        C546   1.267       .  A
C546       C1299   1.506       .  S
Cr547       O550   1.760       .  S
Cr548       O550   1.793       .  S
Cr549       O550   1.773       .  S
O551       Cr569   2.006       .  S
O551        C559   1.265       .  A
O552       Cr569   2.140       .  S
O552        C553   1.299       .  A
C553        O554   1.255       .  A
C553       C1161   1.506       .  S
O554       Cr570   1.970       .  S
O555       Cr570   1.963       .  S
O555        C556   1.260       .  A
C556        O557   1.259       .  A
C556       C1153   1.443       .  S
O557       Cr571   1.971       .  S
O558       Cr571   1.967       .  S
O558        C559   1.248       .  A
C559       C1163   1.432       .  S
O560       Cr569   2.128       .  S
O560        C568   1.297       .  A
O561       Cr569   2.008       .  S
O561        C562   1.261       .  A
C562        O563   1.248       .  A
C562       C1159   1.429       .  S
O563       Cr570   1.968       .  S
O564       Cr570   1.970       .  S
O564        C565   1.256       .  A
C565        O566   1.258       .  A
C565       C1170   1.431       .  S
O566       Cr571   1.957       .  S
O567       Cr571   1.955       .  S
O567        C568   1.252       .  A
C568       C1157   1.488       .  S
Cr569       O572   1.765       .  S
Cr570       O572   1.768       .  S
Cr571       O572   1.769       .  S
O573       Cr591   1.991       .  S
O573        C581   1.259       .  A
O574       Cr591   2.130       .  S
O574        C575   1.301       .  A
C575        O576   1.266       .  A
C575       C1149   1.500       .  S
O576       Cr592   1.984       .  S
O577       Cr592   1.959       .  S
O577        C578   1.260       .  A
C578        O579   1.258       .  A
C578       C1154   1.445       .  S
O579       Cr593   1.977       .  S
O580       Cr593   1.966       .  S
O580        C581   1.251       .  A
C581       C1152   1.426       .  S
O582       Cr591   2.130       .  S
O582        C590   1.297       .  A
O583       Cr591   2.010       .  S
O583        C584   1.262       .  A
C584        O585   1.237       .  A
C584       C1298   1.415       .  S
O585       Cr592   1.954       .  S
O586       Cr592   2.003       .  S
O586        C587   1.264       .  A
C587        O588   1.262       .  A
C587       C1166   1.473       .  S
O588       Cr593   1.960       .  S
O589       Cr593   1.962       .  S
O589        C590   1.251       .  A
C590       C1285   1.498       .  S
Cr591       O594   1.764       .  S
Cr592       O594   1.771       .  S
Cr593       O594   1.774       .  S
O595       Cr613   2.010       .  S
O595        C603   1.264       .  A
O596       Cr613   2.112       .  S
O596        C597   1.295       .  A
C597        O598   1.269       .  A
C597       C1243   1.496       .  S
O598       Cr614   1.994       .  S
O599       Cr614   1.956       .  S
O599        C600   1.261       .  A
C600        O601   1.255       .  A
C600       C1142   1.438       .  S
O601       Cr615   1.966       .  S
O602       Cr615   1.963       .  S
O602        C603   1.250       .  A
C603       C1252   1.440       .  S
O604       Cr613   2.120       .  S
O604        C612   1.294       .  A
O605       Cr613   2.021       .  S
O605        C606   1.265       .  A
C606        O607   1.236       .  A
C606       C1148   1.420       .  S
O607       Cr614   1.952       .  S
O608       Cr614   2.011       .  S
O608        C609   1.265       .  A
C609        O610   1.260       .  A
C609       C1137   1.473       .  S
O610       Cr615   1.959       .  S
O611       Cr615   1.957       .  S
O611        C612   1.250       .  A
C612       C1145   1.489       .  S
Cr613       O616   1.760       .  S
Cr614       O616   1.769       .  S
Cr615       O616   1.776       .  S
O617       Cr635   2.000       .  S
O617        C625   1.261       .  A
O618       Cr635   2.135       .  S
O618        C619   1.298       .  A
C619        O620   1.253       .  A
C619       C1249   1.503       .  S
O620       Cr636   1.968       .  S
O621       Cr636   1.960       .  S
O621        C622   1.261       .  A
C622        O623   1.257       .  A
C622       C1141   1.437       .  S
O623       Cr637   1.963       .  S
O624       Cr637   1.970       .  S
O624        C625   1.250       .  A
C625       C1242   1.434       .  S
O626       Cr635   2.133       .  S
O626        C634   1.299       .  A
O627       Cr635   2.001       .  S
O627        C628   1.260       .  A
C628        O629   1.250       .  A
C628       C1135   1.429       .  S
O629       Cr636   1.969       .  S
O630       Cr636   1.976       .  S
O630        C631   1.259       .  A
C631        O632   1.257       .  A
C631       C1129   1.436       .  S
O632       Cr637   1.957       .  S
O633       Cr637   1.960       .  S
O633        C634   1.253       .  A
C634       C1133   1.495       .  S
Cr635       O638   1.770       .  S
Cr636       O638   1.773       .  S
Cr637       O638   1.768       .  S
O639       Cr657   2.003       .  S
O639        C647   1.253       .  A
O640       Cr657   2.103       .  S
O640        C641   1.292       .  A
C641        O642   1.266       .  A
C641       C1126   1.505       .  S
O642       Cr658   2.001       .  S
O643       Cr658   1.952       .  S
O643        C644   1.256       .  A
C644        O645   1.263       .  A
C644       C1138   1.466       .  S
O645       Cr659   2.004       .  S
O646       Cr659   1.962       .  S
O646        C647   1.243       .  A
C647       C1127   1.425       .  S
O648       Cr657   2.111       .  S
O648        C656   1.296       .  A
O649       Cr657   1.984       .  S
O649        C650   1.258       .  A
C650        O651   1.247       .  A
C650       C1123   1.419       .  S
O651       Cr658   1.963       .  S
O652       Cr658   1.995       .  S
O652        C653   1.269       .  A
C653        O654   1.253       .  A
C653       C1130   1.449       .  S
O654       Cr659   1.969       .  S
O655       Cr659   1.985       .  S
O655        C656   1.263       .  A
C656       C1121   1.499       .  S
Cr657       O660   1.768       .  S
Cr658       O660   1.766       .  S
Cr659       O660   1.788       .  S
O661       Cr679   2.025       .  S
O661        C669   1.267       .  A
O662       Cr679   1.995       .  S
O662        C663   1.260       .  A
C663        O664   1.251       .  A
C663        C729   1.453       .  S
O664       Cr680   1.981       .  S
O665       Cr680   1.952       .  S
O665        C666   1.256       .  A
C666        O667   1.267       .  A
C666       C1114   1.418       .  S
O667       Cr681   2.013       .  S
O668       Cr681   2.021       .  S
O668        C669   1.263       .  A
C669       C1115   1.491       .  S
O670       Cr679   2.004   1_565  S
O670        C678   1.262       .  A
O671       Cr679   1.999   1_565  S
O671        C672   1.267       .  A
C672        O673   1.254       .  A
C672        C694   1.426       .  S
O673       Cr680   1.948   1_565  S
O674       Cr680   1.953   1_565  S
O674        C675   1.248       .  A
C675        O676   1.268       .  A
C675       C1120   1.427       .  S
O676       Cr681   2.010   1_565  S
O677       Cr681   2.061   1_565  S
O677        C678   1.281       .  A
C678       C1117   1.496       .  S
Cr679       O682   1.773       .  S
Cr680       O682   1.769       .  S
Cr681       O682   1.781       .  S
O683       Cr701   2.039       .  S
O683        C691   1.271       .  A
O684       Cr701   1.987       .  S
O684        C685   1.263       .  A
C685        O686   1.247       .  A
C685        C707   1.446       .  S
O686       Cr702   1.961       .  S
O687       Cr702   1.952       .  S
O687        C688   1.257       .  A
C688        O689   1.272       .  A
C688       C1136   1.429       .  S
O689       Cr703   2.029       .  S
O690       Cr703   2.027       .  S
O690        C691   1.265       .  A
C691       C1122   1.501       .  S
O692       Cr701   2.007       .  S
O692        C700   1.263       .  A
O693       Cr701   1.998       .  S
O693        C694   1.266       .  A
C694        O695   1.253       .  A
O695       Cr702   1.947       .  S
O696       Cr702   1.929       .  S
O696        C697   1.242       .  A
C697        O698   1.262       .  A
C697       C1109   1.413       .  S
O698       Cr703   2.000       .  S
O699       Cr703   2.065       .  S
O699        C700   1.283       .  A
C700       C1111   1.505       .  S
Cr701       O704   1.778       .  S
Cr702       O704   1.771       .  S
Cr703       O704   1.780       .  S
O705       Cr723   2.035   1_565  S
O705        C713   1.269       .  A
O706       Cr723   1.988   1_565  S
O706        C707   1.260       .  A
C707        O708   1.243       .  A
O708       Cr724   1.954       .  S
O709       Cr724   1.951       .  S
O709        C710   1.256       .  A
C710        O711   1.268       .  A
C710       C1124   1.415       .  S
O711       Cr725   2.016   1_565  S
O712       Cr725   2.030   1_565  S
O712        C713   1.266       .  A
C713       C1134   1.501       .  S
O714       Cr723   2.013       .  S
O714        C722   1.264       .  A
O715       Cr723   1.992       .  S
O715        C716   1.270       .  A
C716        O717   1.263       .  A
C716        C738   1.448       .  S
O717       Cr724   1.968   1_545  S
O718       Cr724   1.954   1_545  S
O718        C719   1.247       .  A
C719        O720   1.266       .  A
C719       C1236   1.430       .  S
O720       Cr725   2.012       .  S
O721       Cr725   2.061       .  S
O721        C722   1.279       .  A
C722       C1213   1.503       .  S
Cr723       O726   1.776       .  S
Cr724       O726   1.783   1_565  S
Cr725       O726   1.786       .  S
O727       Cr745   2.013       .  S
O727        C735   1.264       .  A
O728       Cr745   2.025       .  S
O728        C729   1.277       .  A
C729        O730   1.258       .  A
O730       Cr746   1.949       .  S
O731       Cr746   1.952       .  S
O731        C732   1.249       .  A
C732        O733   1.269       .  A
C732       C1107   1.428       .  S
O733       Cr747   2.012       .  S
O734       Cr747   2.059       .  S
O734        C735   1.279       .  A
C735       C1105   1.500       .  S
O736       Cr745   2.035       .  S
O736        C744   1.272       .  A
O737       Cr745   2.000       .  S
O737        C738   1.254       .  A
C738        O739   1.246       .  A
O739       Cr746   1.957       .  S
O740       Cr746   1.953       .  S
O740        C741   1.254       .  A
C741        O742   1.263       .  A
C741       C1216   1.411       .  S
O742       Cr747   2.002       .  S
O743       Cr747   2.022       .  S
O743        C744   1.263       .  A
C744       C1234   1.503       .  S
Cr745       O748   1.774       .  S
Cr746       O748   1.773       .  S
Cr747       O748   1.788       .  S
O749       Cr767   2.001       .  S
O749        C757   1.260       .  A
O750       Cr767   2.009       .  S
O750        C751   1.270       .  A
C751        O752   1.257       .  A
C751        C773   1.450       .  S
O752       Cr768   1.953       .  S
O753       Cr768   1.959       .  S
O753        C754   1.251       .  A
C754        O755   1.263       .  A
C754       C1176   1.417       .  S
O755       Cr769   1.997       .  S
O756       Cr769   2.057       .  S
O756        C757   1.279       .  A
C757       C1158   1.493       .  S
O758       Cr767   2.051       .  S
O758        C766   1.274       .  A
O759       Cr767   1.966       .  S
O759        C760   1.260       .  A
C760        O761   1.246       .  A
C760        C826   1.437       .  S
O761       Cr768   1.964       .  S
O762       Cr768   1.948       .  S
O762        C763   1.252       .  A
C763        O764   1.269       .  A
C763       C1103   1.425       .  S
O764       Cr769   2.028       .  S
O765       Cr769   2.038       .  S
O765        C766   1.269       .  A
C766       C1101   1.511       .  S
Cr767       O770   1.770       .  S
Cr768       O770   1.783       .  S
Cr769       O770   1.780       .  S
O771       Cr789   2.041   1_655  S
O771        C779   1.272       .  A
O772       Cr789   1.989   1_655  S
O772        C773   1.258       .  A
C773        O774   1.253       .  A
O774       Cr790   1.984   1_655  S
O775       Cr790   1.946   1_655  S
O775        C776   1.255       .  A
C776        O777   1.274       .  A
C776       C1160   1.428       .  S
O777       Cr791   2.036   1_655  S
O778       Cr791   2.014   1_655  S
O778        C779   1.261       .  A
C779       C1174   1.495       .  S
O780       Cr789   2.002       .  S
O780        C788   1.262       .  A
O781       Cr789   2.017       .  S
O781        C782   1.271       .  A
C782        O783   1.253       .  A
C782        C804   1.432       .  S
O783       Cr790   1.943       .  S
O784       Cr790   1.960       .  S
O784        C785   1.249       .  A
C785        O786   1.258       .  A
C785       C1259   1.416       .  S
O786       Cr791   1.983       .  S
O787       Cr791   2.065       .  S
O787        C788   1.284       .  A
C788       C1281   1.502       .  S
Cr789       O792   1.773       .  S
Cr790       O792   1.767       .  S
Cr791       O792   1.779       .  S
O793       Cr811   2.030       .  S
O793        C801   1.268       .  A
O794       Cr811   2.009       .  S
O794        C795   1.262       .  A
C795        O796   1.252       .  A
C795        C817   1.458       .  S
O796       Cr812   1.972       .  S
O797       Cr812   1.945       .  S
O797        C798   1.252       .  A
C798        O799   1.269       .  A
C798       C1128   1.427       .  S
O799       Cr813   2.028       .  S
O800       Cr813   2.024       .  S
O800        C801   1.264       .  A
C801       C1146   1.494       .  S
O802       Cr811   2.016       .  S
O802        C810   1.266       .  A
O803       Cr811   2.010       .  S
O803        C804   1.269       .  A
C804        O805   1.253       .  A
O805       Cr812   1.943       .  S
O806       Cr812   1.948       .  S
O806        C807   1.248       .  A
C807        O808   1.263       .  A
C807       C1284   1.415       .  S
O808       Cr813   1.994       .  S
O809       Cr813   2.067       .  S
O809        C810   1.284       .  A
C810       C1257   1.507       .  S
Cr811       O814   1.774       .  S
Cr812       O814   1.767       .  S
Cr813       O814   1.784       .  S
O815       Cr833   2.021       .  S
O815        C823   1.264       .  A
O816       Cr833   2.001       .  S
O816        C817   1.268       .  A
C817        O818   1.258       .  A
O818       Cr834   1.968       .  S
O819       Cr834   1.923       .  S
O819        C820   1.244       .  A
C820        O821   1.265       .  A
C820       C1147   1.405       .  S
O821       Cr835   1.996       .  S
O822       Cr835   2.045       .  S
O822        C823   1.276       .  A
C823       C1125   1.504       .  S
O824       Cr833   2.051   1_655  S
O824        C832   1.275       .  A
O825       Cr833   1.991   1_655  S
O825        C826   1.263       .  A
C826        O827   1.243       .  A
O827       Cr834   1.927   1_655  S
O828       Cr834   1.961   1_655  S
O828        C829   1.255       .  A
C829        O830   1.261       .  A
C829       C1097   1.426       .  S
O830       Cr835   2.006   1_655  S
O831       Cr835   2.029   1_655  S
O831        C832   1.266       .  A
C832       C1100   1.507       .  S
Cr833       O836   1.778       .  S
Cr834       O836   1.778       .  S
Cr835       O836   1.793       .  S
O837       Cr855   2.139       .  S
O837        C845   1.302       .  A
O838       Cr855   1.998       .  S
O838        C839   1.260       .  A
C839        O840   1.248       .  A
C839       C1104   1.425       .  S
O840       Cr856   1.967       .  S
O841       Cr856   1.984       .  S
O841        C842   1.259       .  A
C842        O843   1.260       .  A
C842       C1093   1.450       .  S
O843       Cr857   1.959       .  S
O844       Cr857   1.961       .  S
O844        C845   1.254       .  A
C845       C1099   1.501       .  S
O846       Cr855   2.014       .  S
O846        C854   1.262       .  A
O847       Cr855   2.135       .  S
O847        C848   1.300       .  A
C848        O849   1.256       .  A
C848       C1112   1.502       .  S
O849       Cr856   1.968       .  S
O850       Cr856   1.963       .  S
O850        C851   1.264       .  A
C851        O852   1.255       .  A
C851       C1089   1.439       .  S
O852       Cr857   1.963       .  S
O853       Cr857   1.965       .  S
O853        C854   1.247       .  A
C854       C1119   1.439       .  S
Cr855       O858   1.756       .  S
Cr856       O858   1.768       .  S
Cr857       O858   1.773       .  S
O859       Cr877   2.140       .  S
O859        C867   1.303       .  A
O860       Cr877   1.986       .  S
O860        C861   1.253       .  A
C861        O862   1.252       .  A
C861       C1087   1.432       .  S
O862       Cr878   1.969       .  S
O863       Cr878   1.958       .  S
O863        C864   1.254       .  A
C864        O865   1.262       .  A
C864       C1081   1.444       .  S
O865       Cr879   1.966       .  S
O866       Cr879   1.969       .  S
O866        C867   1.254       .  A
C867       C1085   1.510       .  S
O868       Cr877   1.991       .  S
O868        C876   1.255       .  A
O869       Cr877   2.142       .  S
O869        C870   1.303       .  A
C870        O871   1.257       .  A
C870       C1102   1.508       .  S
O871       Cr878   1.972       .  S
O872       Cr878   1.964       .  S
O872        C873   1.262       .  A
C873        O874   1.257       .  A
C873       C1094   1.450       .  S
O874       Cr879   1.980       .  S
O875       Cr879   1.967       .  S
O875        C876   1.250       .  A
C876       C1098   1.427       .  S
Cr877       O880   1.767       .  S
Cr878       O880   1.773       .  S
Cr879       O880   1.779       .  S
O881       Cr899   2.120       .  S
O881        C889   1.294       .  A
O882       Cr899   2.013       .  S
O882        C883   1.266       .  A
C883        O884   1.246       .  A
C883       C1110   1.430       .  S
O884       Cr900   1.963       .  S
O885       Cr900   1.959       .  S
O885        C886   1.253       .  A
C886        O887   1.261       .  A
C886       C1090   1.438       .  S
O887       Cr901   1.959       .  S
O888       Cr901   1.969       .  S
O888        C889   1.254       .  A
C889       C1118   1.494       .  S
O890       Cr899   2.014       .  S
O890        C898   1.266       .  A
O891       Cr899   2.122       .  S
O891        C892   1.294       .  A
C892        O893   1.257       .  A
C892       C1077   1.490       .  S
O893       Cr900   1.968       .  S
O894       Cr900   1.953       .  S
O894        C895   1.261       .  A
C895        O896   1.252       .  A
C895       C1082   1.444       .  S
O896       Cr901   1.966       .  S
O897       Cr901   1.966       .  S
O897        C898   1.251       .  A
C898       C1079   1.440       .  S
Cr899       O902   1.764       .  S
Cr900       O902   1.767       .  S
Cr901       O902   1.774       .  S
O903       Cr921   2.030       .  S
O903        C911   1.270       .  A
O904       Cr921   2.003       .  S
O904        C905   1.258       .  A
C905        O906   1.247       .  A
C905        C971   1.445       .  S
O906       Cr922   1.952       .  S
O907       Cr922   1.961       .  S
O907        C908   1.257       .  A
C908        O909   1.263       .  A
C908       C1151   1.425       .  S
O909       Cr923   2.007       .  S
O910       Cr923   2.042       .  S
O910        C911   1.268       .  A
C911       C1162   1.510       .  S
O912       Cr921   2.030   1_556  S
O912        C920   1.268       .  A
O913       Cr921   2.006   1_556  S
O913        C914   1.271       .  A
C914        O915   1.257       .  A
C914        C936   1.451       .  S
O915       Cr922   1.958   1_556  S
O916       Cr922   1.941   1_556  S
O916        C917   1.247       .  A
C917        O918   1.272       .  A
C917       C1080   1.427       .  S
O918       Cr923   2.017   1_556  S
O919       Cr923   2.072   1_556  S
O919        C920   1.282       .  A
C920       C1086   1.516       .  S
Cr921       O924   1.781       .  S
Cr922       O924   1.781       .  S
Cr923       O924   1.787       .  S
O925       Cr943   2.011       .  S
O925        C933   1.264       .  A
O926       Cr943   1.998       .  S
O926        C927   1.266       .  A
C927        O928   1.256       .  A
C927        C949   1.432       .  S
O928       Cr944   1.958       .  S
O929       Cr944   1.936       .  S
O929        C930   1.243       .  A
C930        O931   1.266       .  A
C930       C1073   1.423       .  S
O931       Cr945   2.011       .  S
O932       Cr945   2.061       .  S
O932        C933   1.281       .  A
C933       C1075   1.503       .  S
O934       Cr943   2.020       .  S
O934        C942   1.266       .  A
O935       Cr943   2.002       .  S
O935        C936   1.261       .  A
C936        O937   1.249       .  A
O937       Cr944   1.967       .  S
O938       Cr944   1.968       .  S
O938        C939   1.264       .  A
C939        O940   1.268       .  A
C939       C1088   1.429       .  S
O940       Cr945   2.012       .  S
O941       Cr945   2.026       .  S
O941        C942   1.264       .  A
C942       C1078   1.493       .  S
Cr943       O946   1.783       .  S
Cr944       O946   1.770       .  S
Cr945       O946   1.779       .  S
O947       Cr965   2.003   1_556  S
O947        C955   1.263       .  A
O948       Cr965   1.994   1_556  S
O948        C949   1.265       .  A
C949        O950   1.256       .  A
O950       Cr966   1.959       .  S
O951       Cr966   1.932       .  S
O951        C952   1.242       .  A
C952        O953   1.265       .  A
C952       C1071   1.416       .  S
O953       Cr967   2.004       .  S
O954       Cr967   2.064       .  S
O954        C955   1.283       .  A
C955       C1070   1.497       .  S
O956       Cr965   2.026       .  S
O956        C964   1.266       .  A
O957       Cr965   1.984       .  S
O957        C958   1.262       .  A
C958        O959   1.246       .  A
C958        C980   1.441       .  S
O959       Cr966   1.957   1_554  S
O960       Cr966   1.956   1_554  S
O960        C961   1.258       .  A
C961        O962   1.269       .  A
C961       C1195   1.425       .  S
O962       Cr967   2.021   1_554  S
O963       Cr967   2.029   1_554  S
O963        C964   1.265       .  A
C964       C1178   1.494       .  S
Cr965       O968   1.778   1_554  S
Cr966       O968   1.775       .  S
Cr967       O968   1.779       .  S
O969       Cr987   2.004       .  S
O969        C977   1.260       .  A
O970       Cr987   1.990       .  S
O970        C971   1.268       .  A
C971        O972   1.260       .  A
O972       Cr988   1.963       .  S
O973       Cr988   1.946       .  S
O973        C974   1.247       .  A
C974        O975   1.266       .  A
C974       C1164   1.420       .  S
O975       Cr989   2.004       .  S
O976       Cr989   2.060       .  S
O976        C977   1.280       .  A
C977       C1150   1.500       .  S
O978       Cr987   2.043       .  S
O978        C986   1.272       .  A
O979       Cr987   1.983       .  S
O979        C980   1.261       .  A
C980        O981   1.242       .  A
O981       Cr988   1.944       .  S
O982       Cr988   1.950       .  S
O982        C983   1.251       .  A
C983        O984   1.265       .  A
C983       C1180   1.423       .  S
O984       Cr989   2.019       .  S
O985       Cr989   2.035       .  S
O985        C986   1.267       .  A
C986       C1194   1.506       .  S
Cr987       O990   1.777       .  S
Cr988       O990   1.781       .  S
Cr989       O990   1.796       .  S
O991      Cr1009   2.014       .  S
O991        C999   1.264       .  A
O992      Cr1009   2.121       .  S
O992        C993   1.296       .  A
C993        O994   1.257       .  A
C993       C1116   1.488       .  S
O994      Cr1010   1.965       .  S
O995      Cr1010   1.964       .  S
O995        C996   1.261       .  A
C996        O997   1.254       .  A
C996       C1066   1.442       .  S
O997      Cr1011   1.966       .  S
O998      Cr1011   1.963       .  S
O998        C999   1.248       .  A
C999       C1108   1.440       .  S
O1000     Cr1009   2.128       .  S
O1000      C1008   1.298       .  A
O1001     Cr1009   2.013       .  S
O1001      C1002   1.265       .  A
C1002      O1003   1.243       .  A
C1002      C1072   1.427       .  S
O1003     Cr1010   1.961       .  S
O1004     Cr1010   1.979       .  S
O1004      C1005   1.256       .  A
C1005      O1006   1.262       .  A
C1005      C1061   1.450       .  S
O1006     Cr1011   1.957       .  S
O1007     Cr1011   1.973       .  S
O1007      C1008   1.257       .  A
C1008      C1076   1.500       .  S
Cr1009     O1012   1.758       .  S
Cr1010     O1012   1.774       .  S
Cr1011     O1012   1.772       .  S
O1013     Cr1031   2.015       .  S
O1013      C1021   1.265       .  A
O1014     Cr1031   2.123       .  S
O1014      C1015   1.297       .  A
C1015      O1016   1.256       .  A
C1015      C1208   1.491       .  S
O1016     Cr1032   1.965       .  S
O1017     Cr1032   1.965       .  S
O1017      C1018   1.262       .  A
C1018      O1019   1.255       .  A
C1018      C1057   1.443       .  S
O1019     Cr1033   1.966       .  S
O1020     Cr1033   1.965       .  S
O1020      C1021   1.249       .  A
C1021      C1200   1.440       .  S
O1022     Cr1031   2.125       .  S
O1022      C1030   1.297       .  A
O1023     Cr1031   2.016       .  S
O1023      C1024   1.264       .  A
C1024      O1025   1.246       .  A
C1024      C1074   1.436       .  S
O1025     Cr1032   1.964       .  S
O1026     Cr1032   1.976       .  S
O1026      C1027   1.255       .  A
C1027      O1028   1.261       .  A
C1027      C1062   1.450       .  S
O1028     Cr1033   1.958       .  S
O1029     Cr1033   1.970       .  S
O1029      C1030   1.256       .  A
C1030      C1069   1.495       .  S
Cr1031     O1034   1.756       .  S
Cr1032     O1034   1.774       .  S
Cr1033     O1034   1.771       .  S
O1035     Cr1053   1.998       .  S
O1035      C1043   1.258       .  A
O1036     Cr1053   2.124       .  S
O1036      C1037   1.296       .  A
C1037      O1038   1.253       .  A
C1037      C1198   1.487       .  S
O1038     Cr1054   1.957       .  S
O1039     Cr1054   1.963       .  S
O1039      C1040   1.262       .  A
C1040      O1041   1.255       .  A
C1040      C1058   1.444       .  S
O1041     Cr1055   1.967       .  S
O1042     Cr1055   1.969       .  S
O1042      C1043   1.252       .  A
C1043      C1205   1.433       .  S
O1044     Cr1053   2.127       .  S
O1044      C1052   1.298       .  A
O1045     Cr1053   1.992       .  S
O1045      C1046   1.258       .  A
C1046      O1047   1.249       .  A
C1046      C1113   1.420       .  S
O1047     Cr1054   1.968       .  S
O1048     Cr1054   1.971       .  S
O1048      C1049   1.257       .  A
C1049      O1050   1.262       .  A
C1049      C1065   1.445       .  S
O1050     Cr1055   1.960       .  S
O1051     Cr1055   1.961       .  S
O1051      C1052   1.253       .  A
C1052      C1106   1.494       .  S
Cr1053     O1056   1.771       .  S
Cr1054     O1056   1.765       .  S
Cr1055     O1056   1.766       .  S
C1057      C1058   1.336       .  D
C1057      H1059   1.086       .  S
C1058      H1060   1.086       .  S
C1061      C1062   1.337       .  D
C1061      H1063   1.089       .  S
C1062      H1064   1.089       .  S
C1065      C1066   1.337       .  D
C1065      H1067   1.086       .  S
C1066      H1068   1.086       .  S
C1069      C1070   1.243       .  T
C1071      C1072   1.202       .  T
C1073      C1074   1.207       .  T
C1075      C1076   1.246       .  T
C1077      C1078   1.240       .  T
C1079      C1080   1.210       .  T
C1081      C1082   1.333       .  D
C1081      H1083   1.088       .  S
C1082      H1084   1.086       .  S
C1085      C1086   1.254       .  T
C1087      C1088   1.205       .  T
C1089      C1090   1.334       .  D
C1089      H1091   1.086       .  S
C1090      H1092   1.086       .  S
C1093      C1094   1.341       .  D
C1093      H1095   1.089       .  S
C1094      H1096   1.089       .  S
C1097      C1098   1.203       .  T
C1099      C1100   1.248       .  T
C1101      C1102   1.251       .  T
C1103      C1104   1.202       .  T
C1105      C1106   1.244       .  T
C1107      C1108   1.209       .  T
C1109      C1110   1.203       .  T
C1111      C1112   1.248       .  T
C1113      C1114   1.199       .  T
C1115      C1116   1.239       .  T
C1117      C1118   1.243       .  T
C1119      C1120   1.208       .  T
C1121      C1122   1.245       .  T
C1123      C1124   1.196       .  T
C1125      C1126   1.248       .  T
C1127      C1128   1.203       .  T
C1129      C1130   1.331       .  D
C1129      H1131   1.088       .  S
C1130      H1132   1.090       .  S
C1133      C1134   1.245       .  T
C1135      C1136   1.205       .  T
C1137      C1138   1.351       .  D
C1137      H1139   1.086       .  S
C1138      H1140   1.087       .  S
C1141      C1142   1.336       .  D
C1141      H1143   1.089       .  S
C1142      H1144   1.089       .  S
C1145      C1146   1.241       .  T
C1147      C1148   1.199       .  T
C1149      C1150   1.245       .  T
C1151      C1152   1.202       .  T
C1153      C1154   1.340       .  D
C1153      H1155   1.089       .  S
C1154      H1156   1.089       .  S
C1157      C1158   1.241       .  T
C1159      C1160   1.205       .  T
C1161      C1162   1.251       .  T
C1163      C1164   1.204       .  T
C1165      C1166   1.350       .  D
C1165      H1167   1.086       .  S
C1166      H1168   1.085       .  S
C1169      C1170   1.330       .  D
C1169      H1171   1.087       .  S
C1170      H1172   1.086       .  S
C1173      C1174   1.242       .  T
C1175      C1176   1.200       .  T
C1177      C1178   1.241       .  T
C1179      C1180   1.201       .  T
C1181      C1182   1.338       .  D
C1181      H1183   1.090       .  S
C1182      H1184   1.090       .  S
C1185      C1186   1.339       .  D
C1185      H1187   1.089       .  S
C1186      H1188   1.088       .  S
C1189      C1190   1.336       .  D
C1189      H1191   1.090       .  S
C1190      H1192   1.089       .  S
C1193      C1194   1.248       .  T
C1195      C1196   1.202       .  T
C1197      C1198   1.240       .  T
C1199      C1200   1.210       .  T
C1201      C1202   1.200       .  T
C1203      C1204   1.246       .  T
C1205      C1206   1.206       .  T
C1207      C1208   1.242       .  T
C1209      C1210   1.249       .  T
C1211      C1212   1.205       .  T
C1213      C1214   1.247       .  T
C1215      C1216   1.195       .  T
C1217      C1218   1.326       .  D
C1217      H1219   1.085       .  S
C1218      H1220   1.087       .  S
C1221      C1222   1.247       .  T
C1223      C1224   1.199       .  T
C1225      C1226   1.341       .  D
C1225      H1227   1.089       .  S
C1226      H1228   1.090       .  S
C1229      C1230   1.347       .  D
C1229      H1231   1.088       .  S
C1230      H1232   1.089       .  S
C1233      C1234   1.247       .  T
C1235      C1236   1.208       .  T
C1237      C1238   1.249       .  T
C1239      C1240   1.197       .  T
C1241      C1242   1.205       .  T
C1243      C1244   1.242       .  T
C1245      C1246   1.199       .  T
C1247      C1248   1.244       .  T
C1249      C1250   1.249       .  T
C1251      C1252   1.209       .  T
C1253      C1254   1.244       .  T
C1255      C1256   1.199       .  T
C1257      C1258   1.249       .  T
C1259      C1260   1.199       .  T
C1261      C1262   1.243       .  T
C1263      C1264   1.195       .  T
C1265      C1266   1.355       .  D
C1265      H1267   1.088       .  S
C1266      H1268   1.088       .  S
C1269      C1270   1.246       .  T
C1271      C1272   1.196       .  T
C1273      C1274   1.325       .  D
C1273      H1275   1.089       .  S
C1274      H1276   1.091       .  S
C1277      C1278   1.340       .  D
C1277      H1279   1.088       .  S
C1278      H1280   1.089       .  S
C1281      C1282   1.247       .  T
C1283      C1284   1.201       .  T
C1285      C1286   1.246       .  T
C1287      C1288   1.202       .  T
C1289      C1290   1.207       .  T
C1291      C1292   1.244       .  T
C1293      C1294   1.245       .  T
C1295      C1296   1.196       .  T
C1297      C1298   1.196       .  T
C1299      C1300   1.248       .  T
C1301      C1302   1.195       .  T
C1303      C1304   1.241       .  T
C1305      C1306   1.245       .  T
C1307      C1308   1.203       .  T
C1309      C1310   1.250       .  T
C1311      C1312   1.204       .  T
C1313      C1314   1.245       .  T
C1315      C1316   1.205       .  T
C1317      C1318   1.338       .  D
C1317      H1319   1.085       .  S
C1318      H1320   1.087       .  S
C1321      C1322   1.241       .  T
C1323      C1324   1.205       .  T
C1325      C1326   1.244       .  T
C1327      C1328   1.205       .  T
C1329      C1330   1.339       .  D
C1329      H1331   1.087       .  S
C1330      H1332   1.087       .  S
C1333      C1334   1.342       .  D
C1333      H1335   1.086       .  S
C1334      H1336   1.086       .  S
C1337      C1338   1.242       .  T
C1339      C1340   1.198       .  T
C1341      C1342   1.247       .  T
C1343      C1344   1.204       .  T
