geometry optimzed in LAMMPS
_audit_creation_date              2020-11-30 
_audit_creation_method            'lammps2cif' 
_symmetry_space_group_name_H-M    'P1' 
_symmetry_Int_Tables_number       1 
_symmetry_cell_setting            triclinic 
loop_ 
_symmetry_equiv_pos_as_xyz 
  x,y,z 
_cell_length_a                    48.60884646 
_cell_length_b                    48.94640041725345 
_cell_length_c                    26.849852539693064 
_cell_angle_alpha                 89.9262032651999 
_cell_angle_beta                  90.02524931188786 
_cell_angle_gamma                 90.03204894720017 
loop_ 
_atom_site_label 
_atom_site_type_symbol 
_atom_site_fract_x 
_atom_site_fract_y 
_atom_site_fract_z 
_atom_site_charge 
N1          N  0.73527145  0.71788809  0.59673411    -0.27100
N2          N  0.71886441  0.70096892  0.62103610    -0.35000
C3          C  0.72288344  0.70414368  0.67023874     0.01200
C4          C  0.74304647  0.72376935  0.67714951     0.07300
C5          C  0.75026157  0.73216770  0.62969811    -0.05800
H6          H  0.71193170  0.69298830  0.69884777     0.07900
H7          H  0.76480889  0.74798530  0.61973490     0.09100
Cu8        Cu  0.69155519  0.67474010  0.58609247     0.44200
Cu9        Cu  0.73631957  0.72137842  0.52010108     0.42000
Cu10       Cu  0.68856297  0.67959078  0.45104379     0.43900
N11         N  0.66501291  0.65191975  0.54235098    -0.34500
N12         N  0.66340405  0.65417499  0.49340206    -0.28700
C13         C  0.64410167  0.63679031  0.47662646    -0.04800
C14         C  0.63294457  0.62275136  0.51685955     0.07400
C15         C  0.64701265  0.63286043  0.55790815     0.01200
H16         H  0.63878388  0.63442308  0.43775261     0.08800
H17         H  0.64516583  0.62633934  0.59621155     0.07900
N18         N  0.71696208  0.70566666  0.41772367    -0.35900
N19         N  0.73435497  0.72094746  0.44327928    -0.28100
C20         C  0.74968438  0.73574577  0.41151626    -0.03400
C21         C  0.74178504  0.72937286  0.36334822     0.05300
C22         C  0.72082645  0.71033799  0.36883528     0.03400
H23         H  0.76486149  0.75062880  0.42295570     0.08500
H24         H  0.70916714  0.70063547  0.33942957     0.07300
N25         N  0.78743282  0.77980080  0.94287302    -0.27100
N26         N  0.80467966  0.79506073  0.91691685    -0.35000
C27         C  0.80126278  0.78967623  0.86821313     0.01200
C28         C  0.78070815  0.77022720  0.86327238     0.07300
C29         C  0.77260105  0.76430920  0.91151872    -0.05800
H30         H  0.81287180  0.79925479  0.83857772     0.07900
H31         H  0.75754821  0.74936962  0.92329616     0.09100
Cu32       Cu  0.83244285  0.82187351  0.94931955     0.44200
Cu33       Cu  0.78509919  0.78016718  0.01965583     0.42000
Cu34       Cu  0.83238222  0.82399079  0.08515082     0.43900
N35         N  0.85887783  0.84586687  0.99132729    -0.34500
N36         N  0.85893157  0.84655398  0.04055229    -0.28700
C37         C  0.87849945  0.86405119  0.05593015    -0.04800
C38         C  0.89159688  0.87479697  0.01443556     0.07400
C39         C  0.87839900  0.86291541  0.97414915     0.01200
H40         H  0.88234706  0.86902760  0.09453300     0.08800
H41         H  0.88272564  0.86632192  0.93510757     0.07900
N42         N  0.80391640  0.79901803  0.12067934    -0.35900
N43         N  0.78657457  0.78310745  0.09632815    -0.28100
C44         C  0.77128003  0.76906159  0.12920509    -0.03400
C45         C  0.77916438  0.77656907  0.17682398     0.05300
C46         C  0.80010599  0.79546816  0.16990881     0.03400
H47         H  0.75622673  0.75379616  0.11895434     0.08500
H48         H  0.81184740  0.80575038  0.19854352     0.07300
N49         N  0.73666316  0.27548063  0.59017089    -0.27100
N50         N  0.71878767  0.29118283  0.61365195    -0.35000
C51         C  0.72204751  0.28808672  0.66301854     0.01200
C52         C  0.74284671  0.26928025  0.67123975     0.07300
C53         C  0.75172499  0.26188793  0.62407001    -0.05800
H54         H  0.71062848  0.29944548  0.69062213     0.07900
H55         H  0.76800579  0.24768794  0.61496404     0.09100
Cu56       Cu  0.69118767  0.31677885  0.57832010     0.44200
Cu57       Cu  0.74031002  0.27368501  0.51328735     0.42000
Cu58       Cu  0.69502761  0.31928826  0.44494665     0.43900
N59         N  0.66638393  0.34163653  0.53527158    -0.34500
N60         N  0.66795901  0.34281990  0.48622254    -0.28700
C61         C  0.64971150  0.36129091  0.46942540    -0.04800
C62         C  0.63578525  0.37212573  0.50987907     0.07400
C63         C  0.64709707  0.35926568  0.55106779     0.01200
H64         H  0.64679686  0.36643686  0.43058210     0.08800
H65         H  0.64234282  0.36296090  0.58981495     0.07900
N66         N  0.72259170  0.29276379  0.41152163    -0.35900
N67         N  0.73896734  0.27596119  0.43619045    -0.28100
C68         C  0.75357344  0.26116236  0.40332292    -0.03400
C69         C  0.74622586  0.26924476  0.35568918     0.05300
C70         C  0.72638796  0.28917816  0.36240964     0.03400
H71         H  0.76852167  0.24573806  0.41337057     0.08500
H72         H  0.71501894  0.29989417  0.33379597     0.07300
N73         N  0.79659423  0.21990928  0.09013921    -0.27100
N74         N  0.81213334  0.20219458  0.11443629    -0.35000
C75         C  0.80724331  0.20459001  0.16354211     0.01200
C76         C  0.78758565  0.22473342  0.17044904     0.07300
C77         C  0.78150893  0.23410315  0.12305698    -0.05800
H78         H  0.81774526  0.19295473  0.19204961     0.07900
H79         H  0.76706404  0.25001665  0.11313592     0.09100
Cu80       Cu  0.83938729  0.17576217  0.07971955     0.44200
Cu81       Cu  0.79602996  0.22393532  0.01345229     0.42000
Cu82       Cu  0.83753819  0.17625924  0.94461667     0.43900
N83         N  0.86372794  0.15091438  0.03537118    -0.34500
N84         N  0.86256590  0.15078387  0.98621395    -0.28700
C85         C  0.88047046  0.13226715  0.96864869    -0.04800
C86         C  0.89398182  0.12034150  0.00861741     0.07400
C87         C  0.88257863  0.13256209  0.05036619     0.01200
H88         H  0.88298047  0.12762601  0.92957213     0.08800
H89         H  0.88773374  0.12858477  0.08889586     0.07900
N90         N  0.81265509  0.20526529  0.91127155    -0.35900
N91         N  0.79745237  0.22280409  0.93650711    -0.28100
C92         C  0.78338789  0.23852053  0.90427545    -0.03400
C93         C  0.79030779  0.23068697  0.85637223     0.05300
C94         C  0.80878958  0.20940713  0.86229193     0.03400
H95         H  0.76909989  0.25440580  0.91495912     0.08500
H96         H  0.81818063  0.19727020  0.83328194     0.07300
N97         N  0.28485168  0.70843024  0.56573222    -0.27100
N98         N  0.30414784  0.69515676  0.59053017    -0.35000
C99         C  0.30090929  0.69975644  0.63950340     0.01200
C100        C  0.27825216  0.71655636  0.64597976     0.07300
C101        C  0.26875916  0.72180201  0.59826011    -0.05800
H102        H  0.31443080  0.69180603  0.66802608     0.07900
H103        H  0.25137516  0.73437513  0.58787654     0.09100
Cu104      Cu  0.33335547  0.67070244  0.55673920     0.44200
Cu105      Cu  0.28178659  0.70827254  0.48886568     0.42000
Cu106      Cu  0.32930410  0.66488488  0.42193743     0.43900
N107        N  0.35716461  0.64414644  0.51520600    -0.37300
N108        N  0.35552660  0.64169676  0.46627112    -0.28700
C109        C  0.37337251  0.62238112  0.45132629    -0.04800
C110        C  0.38672272  0.61199258  0.49287765     0.07400
C111        C  0.37602283  0.62649330  0.53266032     0.01200
H112        H  0.37634701  0.61629325  0.41298671     0.08800
H113        H  0.38183117  0.62481906  0.57142722     0.07900
N114        N  0.30169590  0.69121375  0.38724301    -0.35900
N115        N  0.28431988  0.70690101  0.41196513    -0.28100
C116        C  0.26986820  0.72204744  0.37941809    -0.03400
C117        C  0.27830940  0.71549854  0.33161848     0.05300
C118        C  0.29871436  0.69600204  0.33815277     0.03400
H119        H  0.25496970  0.73735115  0.39009837     0.08500
H120        H  0.31061841  0.68608925  0.30934121     0.07300
N121        N  0.23532757  0.77230883  0.06478878    -0.27100
N122        N  0.21869816  0.78846427  0.09022859    -0.35000
C123        C  0.22278236  0.78418601  0.13918931     0.01200
C124        C  0.24308928  0.76452626  0.14495457     0.07300
C125        C  0.25040253  0.75737975  0.09682697    -0.05800
H126        H  0.21158171  0.79446848  0.16849159     0.07900
H127        H  0.26485210  0.74175126  0.08568601     0.09100
Cu128      Cu  0.19056620  0.81503378  0.05728878     0.44200
Cu129      Cu  0.23606639  0.77022385  0.98769816     0.42000
Cu130      Cu  0.18742760  0.81320162  0.92270347     0.43900
N131        N  0.16494739  0.84007586  0.01497674    -0.34500
N132        N  0.16415137  0.83950283  0.96581187    -0.28700
C133        C  0.14632291  0.85848932  0.94948803    -0.04800
C134        C  0.13485787  0.87154389  0.99033511     0.07400
C135        C  0.14741460  0.85937695  0.03122697     0.01200
H136        H  0.14267101  0.86280440  0.91056850     0.08800
H137        H  0.14400469  0.86413147  0.07006950     0.07900
N138        N  0.21383105  0.78640115  0.88722204    -0.35900
N139        N  0.23200813  0.77109881  0.91086872    -0.28100
C140        C  0.24637193  0.75662930  0.87727322    -0.03400
C141        C  0.23686952  0.76314606  0.83000160     0.05300
C142        C  0.21598618  0.78193502  0.83800180     0.03400
H143        H  0.26268622  0.74250640  0.88666309     0.08500
H144        H  0.20283322  0.79136151  0.81046308     0.07300
O145        O  0.04294246  0.96763772  0.95867712    -0.72700
O146        O  0.98446081  0.02543822  0.96433112    -0.73700
O147        O  0.04249203  0.02566998  0.95872479    -0.62300
O148        O  0.98456147  0.96759500  0.96389113    -0.70800
O149        O  0.98732064  0.96663242  0.04627150    -0.70300
O150        O  0.04442509  0.02604780  0.04107825    -0.61600
O151        O  0.98614926  0.02465673  0.04680785    -0.74100
O152        O  0.04582711  0.96804642  0.04103408    -0.72900
Cu153      Cu  0.01354957  0.99655039  0.95857813     1.04600
Cu154      Cu  0.01602737  0.99631139  0.04668526     1.04300
C155        C  0.05384183  0.95883415  0.99897098     0.93400
C156        C  0.97599972  0.03417664  0.00646868     0.92600
C157        C  0.05252960  0.03530551  0.99903270     0.84700
C158        C  0.97655623  0.95804667  0.00573284     0.91000
O159        O  0.54634302  0.46781473  0.46038042    -0.72700
O160        O  0.48621441  0.52389432  0.45512103    -0.73700
O161        O  0.54443713  0.52569927  0.46165380    -0.62300
O162        O  0.48803546  0.46591043  0.45375884    -0.70800
O163        O  0.48485256  0.46568416  0.53608130    -0.70300
O164        O  0.54202691  0.52497042  0.54394108    -0.61600
O165        O  0.48359968  0.52347737  0.53749079    -0.74100
O166        O  0.54308231  0.46669223  0.54274500    -0.72900
Cu167      Cu  0.51636897  0.49586307  0.45489576     1.04600
Cu168      Cu  0.51333172  0.49519648  0.54294069     1.04300
C169        C  0.55411597  0.45826389  0.50239476     0.93400
C170        C  0.47536244  0.53259435  0.49542582     0.92600
C171        C  0.55230767  0.53480804  0.50388611     0.84700
C172        C  0.47730550  0.45647494  0.49370104     0.91000
N173        N  0.23403560  0.21851676  0.90076489    -0.27100
N174        N  0.21869816  0.20034620  0.87724959    -0.35000
C175        C  0.22369427  0.20204888  0.82808083     0.01200
C176        C  0.24307640  0.22237956  0.82018569     0.07300
C177        C  0.24925039  0.23221568  0.86723336    -0.05800
H178        H  0.21446514  0.18885619  0.80044702     0.07900
H179        H  0.26386509  0.24809628  0.87650066     0.09100
Cu180      Cu  0.19211333  0.17378511  0.91328289     0.44200
Cu181      Cu  0.23444852  0.22323676  0.97743552     0.42000
Cu182      Cu  0.18739529  0.18134296  0.04782958     0.43900
N183        N  0.16554934  0.15141847  0.95782276    -0.34500
N184        N  0.16324495  0.15476574  0.00645726    -0.28700
C185        C  0.14394933  0.13755998  0.02383296    -0.04800
C186        C  0.13349106  0.12255026  0.98431096     0.07400
C187        C  0.14797511  0.13181555  0.94307285     0.01200
H188        H  0.13808506  0.13605366  0.06259530     0.08800
H189        H  0.14658012  0.12446672  0.90523020     0.07900
N190        N  0.21597379  0.20725711  0.08046228    -0.35900
N191        N  0.23305174  0.22273863  0.05454896    -0.28100
C192        C  0.24965906  0.23625011  0.08611245    -0.03400
C193        C  0.24269938  0.22899739  0.13437896     0.05300
C194        C  0.22135322  0.21042231  0.12926734     0.03400
H195        H  0.26627690  0.24951484  0.07454648     0.08500
H196        H  0.21072628  0.19972655  0.15884604     0.07300
N197        N  0.30309299  0.26380826  0.55570201    -0.27100
N198        N  0.32000754  0.27989492  0.58066384    -0.35000
C199        C  0.31591140  0.27624179  0.62972938     0.01200
C200        C  0.29556515  0.25667639  0.63619887     0.07300
C201        C  0.28786237  0.24941008  0.58826069    -0.05800
H202        H  0.32621275  0.28793745  0.65832244     0.07900
H203        H  0.27204729  0.23497542  0.57770172     0.09100
Cu204      Cu  0.34673375  0.30735666  0.54722562     0.44200
Cu205      Cu  0.30037916  0.26323910  0.47862186     0.42000
Cu206      Cu  0.34299795  0.31208050  0.41286451     0.43900
N207        N  0.36965530  0.33478995  0.50546631    -0.34500
N208        N  0.36804343  0.33674806  0.45646056    -0.28700
C209        C  0.38493676  0.35678033  0.44089845    -0.04800
C210        C  0.39805581  0.36786729  0.48206249     0.07400
C211        C  0.38764159  0.35349424  0.52236964     0.01200
H212        H  0.38700007  0.36310092  0.40248151     0.08800
H213        H  0.39281996  0.35635413  0.56120972     0.07900
N214        N  0.31712822  0.28442375  0.37758697    -0.35900
N215        N  0.30155510  0.26664498  0.40165140    -0.28100
C216        C  0.28698154  0.25207680  0.36840566    -0.03400
C217        C  0.29384885  0.26088592  0.32089864     0.05300
C218        C  0.31290449  0.28158306  0.32835060     0.03400
H219        H  0.27185848  0.23682079  0.37839554     0.08500
H220        H  0.32290013  0.29381456  0.30005915     0.07300
C221        C  0.25607884  0.23074254  0.77253236     0.00000
C222        C  0.28416032  0.23746005  0.77253902    -0.11800
C223        C  0.29760092  0.24546405  0.72876627     0.02300
C224        C  0.28273825  0.24736346  0.68358012     0.00000
C225        C  0.25465356  0.24048295  0.68359077    -0.11800
C226        C  0.24127812  0.23226584  0.72731996     0.02200
H227        H  0.29587804  0.23591023  0.80681211     0.15100
H228        H  0.24282817  0.24212579  0.64947672     0.15100
C229        C  0.21211682  0.22681442  0.72485660     0.36800
C230        C  0.32685897  0.25033356  0.73132855     0.36700
N231        N  0.18874056  0.22248455  0.72257110    -0.43500
N232        N  0.35032307  0.25413189  0.73380924    -0.43500
C233        C  0.25640783  0.23745602  0.18132157     0.00000
C234        C  0.26052187  0.21786015  0.21881928    -0.11800
C235        C  0.27333310  0.22473208  0.26386341     0.02300
C236        C  0.28173662  0.25197267  0.27269150     0.00000
C237        C  0.27800292  0.27145838  0.23481117    -0.11800
C238        C  0.26553654  0.26449330  0.18951011     0.02200
H239        H  0.25421720  0.19688739  0.21250780     0.15100
H240        H  0.28420426  0.29246287  0.24100528     0.15100
C241        C  0.26125853  0.28586754  0.15322640     0.36800
C242        C  0.27877440  0.20306635  0.29904454     0.36700
N243        N  0.25789698  0.30307750  0.12426162    -0.43500
N244        N  0.28321736  0.18557382  0.32695256    -0.43500
C245        C  0.45631892  0.43444937  0.49066535     0.00000
C246        C  0.45714244  0.41625106  0.45026471    -0.11800
C247        C  0.43845819  0.39453210  0.44650553     0.02300
C248        C  0.41816030  0.39075030  0.48359321     0.00000
C249        C  0.41712251  0.40914181  0.52367121    -0.11800
C250        C  0.43573969  0.43091463  0.52734442     0.02200
H251        H  0.47290434  0.41858397  0.42198891     0.15100
H252        H  0.40137143  0.40678504  0.55194879     0.15100
C253        C  0.43243992  0.44989288  0.56805923     0.36800
C254        C  0.44162029  0.37574714  0.40550050     0.36700
N255        N  0.42970891  0.46518310  0.60052706    -0.43500
N256        N  0.44424690  0.36072736  0.37258786    -0.43500
C257        C  0.11252640  0.10039008  0.98706364     0.00000
C258        C  0.11016933  0.08536649  0.03152075    -0.11800
C259        C  0.09084262  0.06432769  0.03666695     0.02300
C260        C  0.07337366  0.05755531  0.99635749     0.00000
C261        C  0.07567063  0.07263915  0.95193412    -0.11800
C262        C  0.09469185  0.09397624  0.94708156     0.02200
H263        H  0.12373439  0.08980828  0.06252168     0.15100
H264        H  0.06210763  0.06815000  0.92091027     0.15100
C265        C  0.09425194  0.10958541  0.90142841     0.36800
C266        C  0.08990724  0.04993835  0.08362566     0.36700
N267        N  0.09362687  0.12196179  0.86468042    -0.43500
N268        N  0.08916347  0.03857206  0.12142567    -0.43500
C269        C  0.07540016  0.93735078  0.99664385     0.00000
C270        C  0.07483437  0.91872191  0.95695417    -0.11800
C271        C  0.09376173  0.89721063  0.95395444     0.02300
C272        C  0.11434093  0.89419444  0.99092940     0.00000
C273        C  0.11518027  0.91317528  0.03018258    -0.11800
C274        C  0.09606838  0.93454816  0.03337347     0.02200
H275        H  0.05893975  0.92045033  0.92874810     0.15100
H276        H  0.13104178  0.91153130  0.05842228     0.15100
C277        C  0.09878561  0.95370307  0.07395827     0.36800
C278        C  0.09033252  0.87788874  0.91386878     0.36700
N279        N  0.10106727  0.96902356  0.10649901    -0.43500
N280        N  0.08728408  0.86255595  0.88154893    -0.43500
C281        C  0.45277284  0.55300108  0.49374128     0.00000
C282        C  0.43352861  0.55339184  0.53278174    -0.11800
C283        C  0.41160342  0.57194597  0.53292136     0.02300
C284        C  0.40887487  0.59111635  0.49380270     0.00000
C285        C  0.42793325  0.59056696  0.45453959    -0.11800
C286        C  0.44968804  0.57181699  0.45408961     0.02200
H287        H  0.43523525  0.53869741  0.56290653     0.15100
H288        H  0.42616689  0.60522866  0.42439375     0.15100
C289        C  0.46893312  0.57308487  0.41319343     0.36800
C290        C  0.39149025  0.56973133  0.57228512     0.36700
N291        N  0.48429269  0.57415546  0.38032484    -0.43500
N292        N  0.37536154  0.56773357  0.60378132    -0.43500
C293        C  0.25274611  0.75211471  0.19242891     0.00000
C294        C  0.23360446  0.74808757  0.23089160    -0.11800
C295        C  0.24127187  0.73586199  0.27599797     0.02300
C296        C  0.26887738  0.72784604  0.28392981     0.00000
C297        C  0.28804810  0.73185279  0.24545746    -0.11800
C298        C  0.28029999  0.74382558  0.20008894     0.02200
H299        H  0.21228258  0.75381814  0.22521760     0.15100
H300        H  0.30934871  0.72604386  0.25110946     0.15100
C301        C  0.30136025  0.74823191  0.16304102     0.36800
C302        C  0.21995023  0.73043558  0.31209836     0.36700
N303        N  0.31836822  0.75165261  0.13352666    -0.43500
N304        N  0.20273574  0.72601369  0.34076693    -0.43500
C305        C  0.26719933  0.72782130  0.69318567     0.00000
C306        C  0.25656089  0.75447502  0.69314615    -0.11800
C307        C  0.24650172  0.76646498  0.73681459     0.02300
C308        C  0.24671546  0.75154649  0.78202152     0.00000
C309        C  0.25702194  0.72472167  0.78178911    -0.11800
C310        C  0.26708725  0.71277109  0.73811511     0.02200
H311        H  0.25672351  0.76633540  0.65899911     0.15100
H312        H  0.25684087  0.71275805  0.81579779     0.15100
C313        C  0.27598752  0.68465814  0.74035357     0.36800
C314        C  0.23737082  0.79447919  0.73399303     0.36700
N315        N  0.28305462  0.66210669  0.74236565    -0.43500
N316        N  0.23008255  0.81693563  0.73113584    -0.43500
C317        C  0.95478312  0.05593930  0.00805033     0.00000
C318        C  0.95370904  0.07478934  0.96864997    -0.11800
C319        C  0.93460690  0.09616651  0.96839118     0.02300
C320        C  0.91532319  0.09858831  0.00759416     0.00000
C321        C  0.91648156  0.07978544  0.04715781    -0.11800
C322        C  0.93600395  0.05873375  0.04791705     0.02200
H323        H  0.96843209  0.07330021  0.93841841     0.15100
H324        H  0.90183113  0.08127026  0.07746729     0.15100
C325        C  0.93569334  0.03997134  0.08946974     0.36800
C326        C  0.93656611  0.11608234  0.92884284     0.36700
N327        N  0.93541037  0.02504062  0.12292625    -0.43500
N328        N  0.93840897  0.13202076  0.89713576    -0.43500
C329        C  0.61468036  0.39402713  0.50893936     0.00000
C330        C  0.61716184  0.41498843  0.47344839    -0.11800
C331        C  0.59796670  0.43626338  0.47099365     0.02300
C332        C  0.57555997  0.43680482  0.50444622     0.00000
C333        C  0.57313756  0.41596396  0.54014911    -0.11800
C334        C  0.59224671  0.39458510  0.54244635     0.02200
H335        H  0.63446943  0.41504916  0.44797629     0.15100
H336        H  0.55579521  0.41597321  0.56556994     0.15100
C337        C  0.58738166  0.37287392  0.57782083     0.36800
C338        C  0.60248128  0.45781166  0.43514955     0.36700
N339        N  0.58331319  0.35550204  0.60616687    -0.43500
N340        N  0.60628711  0.47506585  0.40646826    -0.43500
C341        C  0.75668391  0.25816873  0.30796561     0.00000
C342        C  0.76118287  0.22992671  0.30377873    -0.11800
C343        C  0.77077182  0.21846287  0.25924660     0.02300
C344        C  0.77661268  0.23549847  0.21805269     0.00000
C345        C  0.77195208  0.26370435  0.22221143    -0.11800
C346        C  0.76213541  0.27512743  0.26650898     0.02200
H347        H  0.75657341  0.21666106  0.33507375     0.15100
H348        H  0.77654922  0.27702955  0.19099851     0.15100
C349        C  0.75909778  0.30443939  0.26888451     0.36800
C350        C  0.77293497  0.18909611  0.25613163     0.36700
N351        N  0.75669496  0.32794102  0.27065078    -0.43500
N352        N  0.77447192  0.16554142  0.25363927    -0.43500
C353        C  0.75453048  0.26008806  0.71953671     0.00000
C354        C  0.78273576  0.25397491  0.72184168    -0.11800
C355        C  0.79491217  0.24479699  0.76600160     0.02300
C356        C  0.77873796  0.24142758  0.80922955     0.00000
C357        C  0.75065737  0.24799073  0.80732207    -0.11800
C358        C  0.73840922  0.25705543  0.76307679     0.02200
H359        H  0.79551006  0.25673055  0.68912227     0.15100
H360        H  0.73800128  0.24525044  0.84021649     0.15100
C361        C  0.70907205  0.26164033  0.76324649     0.36800
C362        C  0.82423224  0.24009528  0.76620041     0.36700
N363        N  0.68554108  0.26523734  0.76379754    -0.43500
N364        N  0.84774731  0.23640692  0.76615859    -0.43500
C365        C  0.95471685  0.93686244  0.00731930     0.00000
C366        C  0.95503871  0.91746242  0.04589066    -0.11800
C367        C  0.93505251  0.89686440  0.04866461     0.02300
C368        C  0.91376869  0.89569891  0.01279317     0.00000
C369        C  0.91350191  0.91507403  0.97417382    -0.11800
C370        C  0.93359682  0.93551500  0.97114159     0.02200
H371        H  0.97135419  0.91800752  0.07345033     0.15100
H372        H  0.89717752  0.91461545  0.94664483     0.15100
C373        C  0.93128158  0.95542659  0.93159917     0.36800
C374        C  0.93785946  0.87645709  0.08719055     0.36700
N375        N  0.92937931  0.97138556  0.89994065    -0.43500
N376        N  0.94028574  0.86008240  0.11801379    -0.43500
C377        C  0.61207264  0.60038280  0.51487660     0.00000
C378        C  0.61006446  0.58479265  0.47111311    -0.11800
C379        C  0.59091140  0.56357733  0.46646586     0.02300
C380        C  0.57320717  0.55708489  0.50664918     0.00000
C381        C  0.57524392  0.57259383  0.55055534    -0.11800
C382        C  0.59408863  0.59419508  0.55483833     0.02200
H383        H  0.62376074  0.58893595  0.44017376     0.15100
H384        H  0.56155363  0.56828546  0.58147652     0.15100
C385        C  0.59328337  0.61030098  0.59980956     0.36800
C386        C  0.59038475  0.54878537  0.41997618     0.36700
N387        N  0.59234125  0.62307908  0.63601527    -0.43500
N388        N  0.59000565  0.53718899  0.38244846    -0.43500
C389        C  0.75324257  0.73474279  0.72506508     0.00000
C390        C  0.73436971  0.73919069  0.76371846    -0.11800
C391        C  0.74273081  0.75068923  0.80897272     0.02300
C392        C  0.77065528  0.75773770  0.81637674     0.00000
C393        C  0.78958550  0.75288991  0.77789845    -0.11800
C394        C  0.78120392  0.74137418  0.73268343     0.02200
H395        H  0.71280896  0.73437708  0.75805710     0.15100
H396        H  0.81115159  0.75770635  0.78342768     0.15100
C397        C  0.80194404  0.73547239  0.69574561     0.36800
C398        C  0.72188364  0.75626983  0.84585856     0.36700
N399        N  0.81859483  0.73064837  0.66624539    -0.43500
N400        N  0.70506083  0.76070999  0.87524157    -0.43500
C401        C  0.76906659  0.76516149  0.22473153     0.00000
C402        C  0.78792225  0.76099823  0.26363719    -0.11800
C403        C  0.77970281  0.74923462  0.30886199     0.02300
C404        C  0.75190288  0.74163481  0.31612227     0.00000
C405        C  0.73303098  0.74602144  0.27733852    -0.11800
C406        C  0.74124872  0.75775484  0.23215117     0.02200
H407        H  0.80939322  0.76625854  0.25825383     0.15100
H408        H  0.71155724  0.74075228  0.28264008     0.15100
C409        C  0.72035631  0.76298020  0.19511493     0.36800
C410        C  0.80060440  0.74399589  0.34587341     0.36700
N411        N  0.70348542  0.76713546  0.16563795    -0.43500
N412        N  0.81751102  0.73982561  0.37527966    -0.43500
loop_ 
_geom_bond_atom_site_label_1 
_geom_bond_atom_site_label_2 
_geom_bond_distance 
_geom_bond_site_symmetry_2 
_ccdc_geom_bond_type 
N1            N2   1.321       .  A
N1            C5   1.343       .  A
N1           Cu9   2.065       .  S
N2            C3   1.345       .  A
N2           Cu8   2.071       .  S
C3            C4   1.385       .  A
C3            H6   1.082       .  S
C4            C5   1.384       .  A
C4          C389   1.480       .  S
C5            H7   1.082       .  S
Cu8          N11   2.072       .  S
Cu9          N19   2.065       .  S
Cu10         N12   2.081       .  S
Cu10         N18   2.081       .  S
N11          N12   1.321       .  A
N11          C15   1.345       .  A
N12          C13   1.344       .  A
C13          C14   1.390       .  A
C13          H16   1.082       .  S
C14          C15   1.388       .  A
C14         C377   1.493       .  S
C15          H17   1.080       .  S
N18          N19   1.321       .  A
N18          C22   1.345       .  A
N19          C20   1.344       .  A
C20          C21   1.385       .  A
C20          H23   1.081       .  S
C21          C22   1.388       .  A
C21         C404   1.486       .  S
C22          H24   1.082       .  S
N25          N26   1.321       .  A
N25          C29   1.343       .  A
N25         Cu33   2.065   1_556  S
N26          C27   1.345       .  A
N26         Cu32   2.074       .  S
C27          C28   1.386       .  A
C27          H30   1.082       .  S
C28          C29   1.384       .  A
C28         C392   1.483       .  S
C29          H31   1.081       .  S
Cu32         N35   2.074       .  S
Cu33         N43   2.065       .  S
Cu34         N36   2.077       .  S
Cu34         N42   2.077       .  S
N35          N36   1.322   1_556  A
N35          C39   1.345       .  A
N36          C37   1.345       .  A
C37          C38   1.386       .  A
C37          H40   1.081       .  S
C38          C39   1.386   1_554  A
C38         C368   1.486       .  S
C39          H41   1.082       .  S
N42          N43   1.321       .  A
N42          C46   1.346       .  A
N43          C44   1.343       .  A
C44          C45   1.385       .  A
C44          H47   1.081       .  S
C45          C46   1.387       .  A
C45         C401   1.485       .  S
C46          H48   1.082       .  S
N49          N50   1.321       .  A
N49          C53   1.344       .  A
N49         Cu57   2.074       .  S
N50          C51   1.343       .  A
N50         Cu56   2.066       .  S
C51          C52   1.385       .  A
C51          H54   1.081       .  S
C52          C53   1.387       .  A
C52         C353   1.485       .  S
C53          H55   1.082       .  S
Cu56         N59   2.066       .  S
Cu57         N67   2.074       .  S
Cu58         N60   2.072       .  S
Cu58         N66   2.072       .  S
N59          N60   1.320       .  A
N59          C63   1.344       .  A
N60          C61   1.344       .  A
C61          C62   1.386       .  A
C61          H64   1.082       .  S
C62          C63   1.386       .  A
C62         C329   1.484       .  S
C63          H65   1.081       .  S
N66          N67   1.322       .  A
N66          C70   1.343       .  A
N67          C68   1.345       .  A
C68          C69   1.385       .  A
C68          H71   1.082       .  S
C69          C70   1.384       .  A
C69         C341   1.482       .  S
C70          H72   1.082       .  S
N73          N74   1.322       .  A
N73          C77   1.343       .  A
N73         Cu81   2.068       .  S
N74          C75   1.345       .  A
N74         Cu80   2.075       .  S
C75          C76   1.386       .  A
C75          H78   1.082       .  S
C76          C77   1.384       .  A
C76         C344   1.483       .  S
C77          H79   1.082       .  S
Cu80         N83   2.074       .  S
Cu81         N91   2.068   1_554  S
Cu82         N84   2.069       .  S
Cu82         N90   2.068       .  S
N83          N84   1.321   1_554  A
N83          C87   1.345       .  A
N84          C85   1.343       .  A
C85          C86   1.386   1_556  A
C85          H88   1.081       .  S
C86          C87   1.387       .  A
C86         C320   1.487       .  S
C87          H89   1.082       .  S
N90          N91   1.321       .  A
N90          C94   1.344       .  A
N91          C92   1.344       .  A
C92          C93   1.384       .  A
C92          H95   1.082       .  S
C93          C94   1.385       .  A
C93         C356   1.481       .  S
C94          H96   1.082       .  S
N97          N98   1.321       .  A
N97         C101   1.344       .  A
N97        Cu105   2.069       .  S
N98          C99   1.344       .  A
N98        Cu104   2.068       .  S
C99         C100   1.386       .  A
C99         H102   1.081       .  S
C100        C101   1.385       .  A
C100        C305   1.484       .  S
C101        H103   1.082       .  S
Cu104       N107   2.069       .  S
Cu105       N115   2.070       .  S
Cu106       N108   2.080       .  S
Cu106       N114   2.080       .  S
N107        N108   1.322       .  A
N107        C111   1.344       .  A
N108        C109   1.345       .  A
C109        C110   1.387       .  A
C109        H112   1.082       .  S
C110        C111   1.385       .  A
C110        C284   1.485       .  S
C111        H113   1.081       .  S
N114        N115   1.321       .  A
N114        C118   1.346       .  A
N115        C116   1.344       .  A
C116        C117   1.386       .  A
C116        H119   1.081       .  S
C117        C118   1.388       .  A
C117        C296   1.488       .  S
C118        H120   1.082       .  S
N121        N122   1.322       .  A
N121        C125   1.345       .  A
N121       Cu129   2.073   1_554  S
N122        C123   1.346       .  A
N122       Cu128   2.084       .  S
C123        C124   1.387       .  A
C123        H126   1.082       .  S
C124        C125   1.386       .  A
C124        C293   1.487       .  S
C125        H127   1.081       .  S
Cu128       N131   2.083       .  S
Cu129       N139   2.073       .  S
Cu130       N132   2.070       .  S
Cu130       N138   2.069       .  S
N131        N132   1.321   1_554  A
N131        C135   1.346       .  A
N132        C133   1.344       .  A
C133        C134   1.387       .  A
C133        H136   1.080       .  S
C134        C135   1.390   1_556  A
C134        C272   1.492       .  S
C135        H137   1.082       .  S
N138        N139   1.321       .  A
N138        C142   1.344       .  A
N139        C140   1.344       .  A
C140        C141   1.387       .  A
C140        H143   1.082       .  S
C141        C142   1.387       .  A
C141        C308   1.488       .  S
C142        H144   1.080       .  S
O145       Cu153   2.012       .  S
O145        C155   1.279       .  A
O146       Cu153   2.006   1_645  S
O146        C156   1.278   1_556  A
O147       Cu153   2.002   1_545  S
O147        C157   1.278       .  A
O148       Cu153   2.003   1_655  S
O148        C158   1.277   1_556  A
O149       Cu154   2.014   1_655  S
O149        C158   1.279       .  A
O150       Cu154   2.011   1_545  S
O150        C157   1.278   1_554  A
O151       Cu154   2.009   1_645  S
O151        C156   1.278       .  A
O152       Cu154   2.010       .  S
O152        C155   1.278   1_554  A
Cu153      Cu154   2.369   1_556  S
C155        C269   1.486       .  S
C156        C317   1.484       .  S
C157        C260   1.489       .  S
C158        C365   1.484       .  S
O159       Cu167   2.008       .  S
O159        C169   1.278       .  A
O160       Cu167   2.008       .  S
O160        C170   1.278       .  A
O161       Cu167   2.006       .  S
O161        C171   1.277       .  A
O162       Cu167   2.011       .  S
O162        C172   1.278       .  A
O163       Cu168   2.009       .  S
O163        C172   1.278       .  A
O164       Cu168   2.017       .  S
O164        C171   1.279       .  A
O165       Cu168   2.007       .  S
O165        C170   1.278       .  A
O166       Cu168   2.010       .  S
O166        C169   1.278       .  A
Cu167      Cu168   2.369       .  S
C169        C332   1.481       .  S
C170        C281   1.485       .  S
C171        C380   1.492       .  S
C172        C245   1.486       .  S
N173        N174   1.321       .  A
N173        C177   1.344       .  A
N173       Cu181   2.072       .  S
N174        C175   1.345       .  A
N174       Cu180   2.072       .  S
C175        C176   1.386       .  A
C175        H178   1.081       .  S
C176        C177   1.385       .  A
C176        C221   1.484       .  S
C177        H179   1.082       .  S
Cu180       N183   2.072       .  S
Cu181       N191   2.072   1_556  S
Cu182       N184   2.075       .  S
Cu182       N190   2.075       .  S
N183        N184   1.321   1_556  A
N183        C187   1.344       .  A
N184        C185   1.344       .  A
C185        C186   1.388   1_554  A
C185        H188   1.082       .  S
C186        C187   1.388       .  A
C186        C257   1.490       .  S
C187        H189   1.080       .  S
N190        N191   1.321       .  A
N190        C194   1.345       .  A
N191        C192   1.344       .  A
C192        C193   1.385       .  A
C192        H195   1.081       .  S
C193        C194   1.386       .  A
C193        C233   1.485       .  S
C194        H196   1.082       .  S
N197        N198   1.321       .  A
N197        C201   1.344       .  A
N197       Cu205   2.074       .  S
N198        C199   1.344       .  A
N198       Cu204   2.073       .  S
C199        C200   1.387       .  A
C199        H202   1.081       .  S
C200        C201   1.387       .  A
C200        C224   1.488       .  S
C201        H203   1.082       .  S
Cu204       N207   2.073       .  S
Cu205       N215   2.074       .  S
Cu206       N208   2.076       .  S
Cu206       N214   2.076       .  S
N207        N208   1.321       .  A
N207        C211   1.345       .  A
N208        C209   1.345       .  A
C209        C210   1.387       .  A
C209        H212   1.081       .  S
C210        C211   1.386       .  A
C210        C248   1.487       .  S
C211        H213   1.082       .  S
N214        N215   1.321       .  A
N214        C218   1.345       .  A
N215        C216   1.344       .  A
C216        C217   1.387       .  A
C216        H219   1.081       .  S
C217        C218   1.387       .  A
C217        C236   1.488       .  S
C218        H220   1.082       .  S
C221        C222   1.404       .  A
C221        C226   1.413       .  A
C222        C223   1.400       .  A
C222        H227   1.085       .  S
C223        C224   1.415       .  A
C223        C230   1.444       .  S
C224        C225   1.406       .  A
C225        C226   1.401       .  A
C225        H228   1.084       .  S
C226        C229   1.444       .  S
C229        N231   1.157       .  T
C230        N232   1.157       .  T
C233        C234   1.404       .  A
C233        C238   1.413       .  A
C234        C235   1.401       .  A
C234        H239   1.085       .  S
C235        C236   1.415       .  A
C235        C242   1.444       .  S
C236        C237   1.405       .  A
C237        C238   1.401       .  A
C237        H240   1.084       .  S
C238        C241   1.444       .  S
C241        N243   1.157       .  T
C242        N244   1.157       .  T
C245        C246   1.405       .  A
C245        C250   1.414       .  A
C246        C247   1.402       .  A
C246        H251   1.085       .  S
C247        C248   1.414       .  A
C247        C254   1.444       .  S
C248        C249   1.405       .  A
C249        C250   1.401       .  A
C249        H252   1.085       .  S
C250        C253   1.445       .  S
C253        N255   1.157       .  T
C254        N256   1.157       .  T
C257        C258   1.406   1_556  A
C257        C262   1.415       .  A
C258        C259   1.400       .  A
C258        H263   1.084       .  S
C259        C260   1.415   1_554  A
C259        C266   1.444       .  S
C260        C261   1.406       .  A
C261        C262   1.400       .  A
C261        H264   1.085       .  S
C262        C265   1.444       .  S
C265        N267   1.158       .  T
C266        N268   1.157       .  T
C269        C270   1.404       .  A
C269        C274   1.414   1_556  A
C270        C271   1.401       .  A
C270        H275   1.085       .  S
C271        C272   1.417       .  A
C271        C278   1.443       .  S
C272        C273   1.406   1_556  A
C273        C274   1.402       .  A
C273        H276   1.084       .  S
C274        C277   1.444       .  S
C277        N279   1.157       .  T
C278        N280   1.157       .  T
C281        C282   1.405       .  A
C281        C286   1.415       .  A
C282        C283   1.401       .  A
C282        H287   1.085       .  S
C283        C284   1.414       .  A
C283        C290   1.444       .  S
C284        C285   1.404       .  A
C285        C286   1.401       .  A
C285        H288   1.084       .  S
C286        C289   1.444       .  S
C289        N291   1.157       .  T
C290        N292   1.157       .  T
C293        C294   1.404       .  A
C293        C298   1.415       .  A
C294        C295   1.401       .  A
C294        H299   1.085       .  S
C295        C296   1.414       .  A
C295        C302   1.444       .  S
C296        C297   1.405       .  A
C297        C298   1.403       .  A
C297        H300   1.084       .  S
C298        C301   1.444       .  S
C301        N303   1.157       .  T
C302        N304   1.157       .  T
C305        C306   1.404       .  A
C305        C310   1.413       .  A
C306        C307   1.400       .  A
C306        H311   1.085       .  S
C307        C308   1.416       .  A
C307        C314   1.443       .  S
C308        C309   1.406       .  A
C309        C310   1.400       .  A
C309        H312   1.084       .  S
C310        C313   1.444       .  S
C313        N315   1.157       .  T
C314        N316   1.157       .  T
C317        C318   1.404   1_554  A
C317        C322   1.414       .  A
C318        C319   1.399       .  A
C318        H323   1.085       .  S
C319        C320   1.415   1_556  A
C319        C326   1.444       .  S
C320        C321   1.406       .  A
C321        C322   1.401       .  A
C321        H324   1.084       .  S
C322        C325   1.444       .  S
C325        N327   1.157       .  T
C326        N328   1.157       .  T
C329        C330   1.405       .  A
C329        C334   1.414       .  A
C330        C331   1.400       .  A
C330        H335   1.084       .  S
C331        C332   1.412       .  A
C331        C338   1.444       .  S
C332        C333   1.404       .  A
C333        C334   1.401       .  A
C333        H336   1.085       .  S
C334        C337   1.444       .  S
C337        N339   1.157       .  T
C338        N340   1.157       .  T
C341        C342   1.404       .  A
C341        C346   1.413       .  A
C342        C343   1.402       .  A
C342        H347   1.085       .  S
C343        C344   1.413       .  A
C343        C350   1.444       .  S
C344        C345   1.404       .  A
C345        C346   1.399       .  A
C345        H348   1.085       .  S
C346        C349   1.444       .  S
C349        N351   1.157       .  T
C350        N352   1.157       .  T
C353        C354   1.405       .  A
C353        C358   1.415       .  A
C354        C355   1.399       .  A
C354        H359   1.084       .  S
C355        C356   1.412       .  A
C355        C362   1.444       .  S
C356        C357   1.403       .  A
C357        C358   1.400       .  A
C357        H360   1.085       .  S
C358        C361   1.444       .  S
C361        N363   1.157       .  T
C362        N364   1.157       .  T
C365        C366   1.404       .  A
C365        C370   1.415   1_554  A
C366        C367   1.402       .  A
C366        H371   1.085       .  S
C367        C368   1.414       .  A
C367        C374   1.444       .  S
C368        C369   1.404   1_554  A
C369        C370   1.400       .  A
C369        H372   1.084       .  S
C370        C373   1.445       .  S
C373        N375   1.157       .  T
C374        N376   1.157       .  T
C377        C378   1.405       .  A
C377        C382   1.417       .  A
C378        C379   1.400       .  A
C378        H383   1.084       .  S
C379        C380   1.416       .  A
C379        C386   1.444       .  S
C380        C381   1.406       .  A
C381        C382   1.403       .  A
C381        H384   1.085       .  S
C382        C385   1.443       .  S
C385        N387   1.158       .  T
C386        N388   1.157       .  T
C389        C390   1.403       .  A
C389        C394   1.412       .  A
C390        C391   1.400       .  A
C390        H395   1.085       .  S
C391        C392   1.414       .  A
C391        C398   1.444       .  S
C392        C393   1.404       .  A
C393        C394   1.400       .  A
C393        H396   1.085       .  S
C394        C397   1.444       .  S
C397        N399   1.157       .  T
C398        N400   1.157       .  T
C401        C402   1.404       .  A
C401        C406   1.414       .  A
C402        C403   1.401       .  A
C402        H407   1.085       .  S
C403        C404   1.415       .  A
C403        C410   1.444       .  S
C404        C405   1.404       .  A
C405        C406   1.400       .  A
C405        H408   1.084       .  S
C406        C409   1.444       .  S
C409        N411   1.157       .  T
C410        N412   1.157       .  T
