geometry optimzed in LAMMPS
_audit_creation_date              2020-11-30 
_audit_creation_method            'lammps2cif' 
_symmetry_space_group_name_H-M    'P1' 
_symmetry_Int_Tables_number       1 
_symmetry_cell_setting            triclinic 
loop_ 
_symmetry_equiv_pos_as_xyz 
  x,y,z 
_cell_length_a                    42.006039675651984 
_cell_length_b                    42.00530869489049 
_cell_length_c                    42.00508598566811 
_cell_angle_alpha                 90.00721462378814 
_cell_angle_beta                  90.00785185177091 
_cell_angle_gamma                 89.98752863279066 
loop_ 
_atom_site_label 
_atom_site_type_symbol 
_atom_site_fract_x 
_atom_site_fract_y 
_atom_site_fract_z 
_atom_site_charge 
O1          O  0.03775567  0.49831234  0.54787906    -0.70890
O2          O  0.03766080  0.50145666  0.45175613    -0.71870
O3          O  0.03756460  0.45184467  0.49823917    -0.60490
O4          O  0.03783191  0.54794574  0.50138316    -0.68900
O5          O  0.09068378  0.54752883  0.50138504    -0.68450
O6          O  0.09041953  0.45195196  0.49813653    -0.59710
O7          O  0.09051383  0.50135087  0.45197993    -0.72210
O8          O  0.09060838  0.49810402  0.54754849    -0.70990
Cu9        Cu  0.03583201  0.49989839  0.49981864     1.04560
Cu10       Cu  0.09238414  0.49973160  0.49976326     1.04330
C11         C  0.06429827  0.49765271  0.56270586     0.95310
C12         C  0.06417225  0.50192379  0.43687391     0.94450
C13         C  0.06404536  0.43690745  0.49764562     0.86590
C14         C  0.06439371  0.56273087  0.50189983     0.92860
O15         O  0.62139706  0.03282909  0.54809068    -0.70890
O16         O  0.62472016  0.03282791  0.45251960    -0.71870
O17         O  0.67085181  0.03288792  0.50199631    -0.60490
O18         O  0.57526902  0.03280928  0.49863407    -0.68900
O19         O  0.57495183  0.08566175  0.49869362    -0.68450
O20         O  0.67106329  0.08574115  0.50194064    -0.59710
O21         O  0.62461013  0.08567872  0.45222622    -0.72210
O22         O  0.62140104  0.08568101  0.54839072    -0.70990
Cu23       Cu  0.62306085  0.03101430  0.50030773     1.04560
Cu24       Cu  0.62300391  0.08756392  0.50031086     1.04330
C25         C  0.62087231  0.05914714  0.56323775     0.95310
C26         C  0.62519721  0.05914455  0.43737361     0.94450
C27         C  0.68595164  0.05923129  0.50253982     0.86590
C28         C  0.56011742  0.05912814  0.49811703     0.92860
O29         O  0.15829987  0.54787749  0.49790329    -0.70890
O30         O  0.15813790  0.45229584  0.50123079    -0.71870
O31         O  0.15827843  0.50177580  0.54734835    -0.60490
O32         O  0.15817490  0.49840710  0.45176607    -0.68900
O33         O  0.21102331  0.49834834  0.45141683    -0.68450
O34         O  0.21112810  0.50162463  0.54759964    -0.59710
O35         O  0.21098573  0.45188200  0.50113850    -0.72210
O36         O  0.21114865  0.54808521  0.49790463    -0.70990
Cu37       Cu  0.15640647  0.50009151  0.49955962     1.04560
Cu38       Cu  0.21295046  0.49998055  0.49950900     1.04330
C39         C  0.18463582  0.56298480  0.49739711     0.95310
C40         C  0.18442295  0.43708636  0.50173836     0.94450
C41         C  0.18461118  0.50226800  0.56247385     0.86590
C42         C  0.18447259  0.49781921  0.43659089     0.92860
O43         O  0.57523458  0.49864689  0.91341811    -0.70890
O44         O  0.67136346  0.50189352  0.91316465    -0.71870
O45         O  0.62494486  0.45219434  0.91333812    -0.60490
O46         O  0.62165755  0.54832888  0.91324180    -0.68900
O47         O  0.62176208  0.54811707  0.96609655    -0.68450
O48         O  0.62513408  0.45254358  0.96619019    -0.59710
O49         O  0.67122721  0.50200795  0.96601919    -0.72210
O50         O  0.57566354  0.49867552  0.96627103    -0.70990
Cu51       Cu  0.62329422  0.50026365  0.91141634     1.04560
Cu52       Cu  0.62345072  0.50033759  0.96796817     1.04330
C53         C  0.56045518  0.49812354  0.93998736     0.95310
C54         C  0.68628912  0.50249513  0.93965445     0.94450
C55         C  0.62560759  0.43737202  0.93988182     0.86590
C56         C  0.62115073  0.56321520  0.93975510     0.92860
N57         N  0.41509475  0.49399858  0.96666870    -0.25240
N58         N  0.42446593  0.46570291  0.97712637    -0.33090
C59         C  0.45459643  0.46043384  0.96787691     0.03110
C60         C  0.46493947  0.48643390  0.95088719     0.09130
C61         C  0.43945389  0.50735094  0.95049117    -0.03970
H62         H  0.46904989  0.44073879  0.97606347     0.09800
H63         H  0.43971304  0.53167559  0.94199733     0.11000
Cu64       Cu  0.40244105  0.43966589  0.01279936     0.44170
Cu65       Cu  0.37341510  0.51728165  0.98281310     0.41990
Cu66       Cu  0.34474032  0.48736082  0.06049802     0.43880
N67         N  0.38380319  0.42657388  0.05658148    -0.32620
N68         N  0.36400260  0.44397450  0.07394714    -0.26880
C69         C  0.35768853  0.42848737  0.10119484    -0.02980
C70         C  0.37448009  0.40037125  0.10090329     0.09240
C71         C  0.39081829  0.39975671  0.07252646     0.03040
H72         H  0.34198788  0.43708709  0.11972539     0.10690
H73         H  0.40676477  0.38134488  0.06410231     0.09770
N74         N  0.32244028  0.52284067  0.03444973    -0.34070
N75         N  0.33172342  0.53333480  0.00614797    -0.26250
C76         C  0.30727850  0.54943739  0.99283560    -0.01490
C77         C  0.28183219  0.54894035  0.01378516     0.07120
C78         C  0.29227848  0.53197644  0.03976994     0.05210
H79         H  0.30693110  0.55793279  0.96853767     0.10320
H80         H  0.27792036  0.52376015  0.05945995     0.09150
N81         N  0.09066294  0.49380743  0.70809853    -0.25240
N82         N  0.10151888  0.46563843  0.69878261    -0.33090
C83         C  0.09237622  0.46019942  0.66864767     0.03110
C84         C  0.07503888  0.48594824  0.65824163     0.09130
C85         C  0.07431353  0.50688435  0.68369315    -0.03970
H86         H  0.10086551  0.44060295  0.65423188     0.09800
H87         H  0.06549891  0.53109264  0.68334519     0.11000
Cu88       Cu  0.13748160  0.44003196  0.72085747     0.44170
Cu89       Cu  0.10655406  0.51747916  0.74969880     0.41990
Cu90       Cu  0.18456084  0.48795065  0.77853403     0.43880
N91         N  0.18124183  0.42709132  0.73963333    -0.32620
N92         N  0.19844060  0.44457718  0.75949336    -0.26880
C93         C  0.22568128  0.42914039  0.76603927    -0.02980
C94         C  0.22554592  0.40096213  0.74932627     0.09240
C95         C  0.19727120  0.40027263  0.73280503     0.03040
H96         H  0.24407665  0.43779248  0.78186129     0.10690
H97         H  0.18895734  0.38179087  0.71689822     0.09770
N98         N  0.15817168  0.52328261  0.80073511    -0.34070
N99         N  0.12979397  0.53358943  0.79142558    -0.26250
C100        C  0.11632293  0.54952729  0.81588304    -0.01490
C101        C  0.13724498  0.54914397  0.84136433     0.07120
C102        C  0.16337387  0.53240819  0.83091642     0.05210
H103        H  0.09191171  0.55783749  0.81619039     0.10320
H104        H  0.18314174  0.52429944  0.84531556     0.09150
N105        N  0.15735524  0.49387642  0.29129655    -0.25240
N106        N  0.14666580  0.46568006  0.30070173    -0.33090
C107        C  0.15602812  0.46030919  0.33078891     0.03110
C108        C  0.17332428  0.48614384  0.34107061     0.09130
C109        C  0.17378503  0.50706415  0.31558880    -0.03970
H110        H  0.14772218  0.44073420  0.34525426     0.09800
H111        H  0.18249184  0.53130160  0.31581640     0.11000
Cu112      Cu  0.11051985  0.43999626  0.27893602     0.44170
Cu113      Cu  0.14124078  0.51741231  0.24973124     0.41990
Cu114      Cu  0.06305875  0.48802635  0.22157296     0.43880
N115        N  0.06633592  0.42738491  0.26083115    -0.32620
N116        N  0.04906025  0.44495257  0.24110472    -0.26880
C117        C  0.02142054  0.42997142  0.23527756    -0.02980
C118        C  0.02135489  0.40199998  0.25230834     0.09240
C119        C  0.04994021  0.40095695  0.26828786     0.03040
H120        H  0.00282331  0.43885516  0.21980274     0.10690
H121        H  0.05816592  0.38256177  0.28434480     0.09770
N122        N  0.08920589  0.52333027  0.19913230    -0.34070
N123        N  0.11761995  0.53368803  0.20824457    -0.26250
C124        C  0.13083367  0.54973243  0.18371538    -0.01490
C125        C  0.10972349  0.54932369  0.15839734     0.07120
C126        C  0.08373517  0.53248875  0.16900832     0.05210
H127        H  0.15517798  0.55809517  0.18319133     0.10320
H128        H  0.06389107  0.52434527  0.15475154     0.09150
O129        O  0.17145108  0.58613793  0.00146766    -0.70890
O130        O  0.07532705  0.58623436  0.99823608    -0.71870
O131        O  0.12178258  0.58622370  0.04790961    -0.60490
O132        O  0.12499233  0.58615531  0.95178672    -0.68900
O133        O  0.12499014  0.53330281  0.95209179    -0.68450
O134        O  0.12170071  0.53336971  0.04766687    -0.59710
O135        O  0.07556497  0.53338083  0.99822975    -0.72210
O136        O  0.17112802  0.53328448  0.00153962    -0.70990
Cu137      Cu  0.12339031  0.58806120  0.99984857     1.04560
Cu138      Cu  0.12334502  0.53150930  0.99988231     1.04330
C139        C  0.18628213  0.55959423  0.00205663     0.95310
C140        C  0.06045278  0.55972036  0.99768681     0.94450
C141        C  0.12119965  0.55970835  0.06278132     0.86590
C142        C  0.12552700  0.55961827  0.93694405     0.92860
N143        N  0.91499174  0.46618434  0.00493811    -0.25240
N144        N  0.92433763  0.47662762  0.03325271    -0.33090
C145        C  0.95444725  0.46732192  0.03856207     0.03110
C146        C  0.96481430  0.45031893  0.01257159     0.09130
C147        C  0.93935472  0.44996774  0.99161956    -0.03970
H148        H  0.96887914  0.47548285  0.05827851     0.09800
H149        H  0.93964073  0.44147918  0.96727741     0.11000
Cu150      Cu  0.90237774  0.51235443  0.05932168     0.44170
Cu151      Cu  0.87337974  0.48242392  0.98154802     0.41990
Cu152      Cu  0.84490826  0.56021211  0.01184871     0.43880
N153        N  0.88384261  0.55612585  0.07265403    -0.32620
N154        N  0.86407300  0.57357418  0.05530760    -0.26880
C155        C  0.85774716  0.60076674  0.07090554    -0.02980
C156        C  0.87450187  0.60035614  0.09904792     0.09240
C157        C  0.89082981  0.57195787  0.09955287     0.03040
H158        H  0.84205796  0.61934098  0.06236632     0.10690
H159        H  0.90673928  0.56344157  0.11795004     0.09770
N160        N  0.82259213  0.53435170  0.97622969    -0.34070
N161        N  0.83178002  0.50605655  0.96559870    -0.26250
C162        C  0.80727812  0.49291503  0.94944976    -0.01490
C163        C  0.78189958  0.51395282  0.95005831     0.07120
C164        C  0.79244932  0.53981832  0.96713008     0.05210
H165        H  0.80683410  0.46862597  0.94084834     0.10320
H166        H  0.77813503  0.55955070  0.97547010     0.09150
N167        N  0.15805308  0.50616826  0.70787979    -0.25240
N168        N  0.14703773  0.53424539  0.69846740    -0.33090
C169        C  0.15621189  0.53965427  0.66833621     0.03110
C170        C  0.17372386  0.51397990  0.65802072     0.09130
C171        C  0.17451542  0.49311434  0.68353642    -0.03970
H172        H  0.14762676  0.55914945  0.65385312     0.09800
H173        H  0.18347802  0.46894336  0.68329266     0.11000
Cu174      Cu  0.11073986  0.55963309  0.72031541     0.44170
Cu175      Cu  0.14228459  0.48251502  0.74953947     0.41990
Cu176      Cu  0.06378941  0.51127812  0.77768628     0.43880
N177        N  0.06651390  0.57196660  0.73848544    -0.32620
N178        N  0.04940090  0.55427700  0.75822550    -0.26880
C179        C  0.02166457  0.56908139  0.76411498    -0.02980
C180        C  0.02138264  0.59706982  0.74709869     0.09240
C181        C  0.04993143  0.59830336  0.73107008     0.03040
H182        H  0.00319704  0.56009231  0.77958952     0.10690
H183        H  0.05799370  0.61672957  0.71504557     0.09770
N184        N  0.09025547  0.47615455  0.80009508    -0.34070
N185        N  0.11878807  0.46606667  0.79103323    -0.26250
C186        C  0.13207523  0.45005174  0.81555129    -0.01490
C187        C  0.11087352  0.45016930  0.84080482     0.07120
C188        C  0.08477309  0.46682811  0.83016252     0.05210
H189        H  0.15650601  0.44183903  0.81608400     0.10320
H190        H  0.06478424  0.47470545  0.84436748     0.09150
N191        N  0.12914526  0.46617143  0.20780412    -0.25240
N192        N  0.15731400  0.47686765  0.19832313    -0.33090
C193        C  0.16254413  0.46763692  0.16817186     0.03110
C194        C  0.13664647  0.45041993  0.15792302     0.09130
C195        C  0.11583166  0.44986881  0.18349125    -0.03970
H196        H  0.18208285  0.47595933  0.15366989     0.09800
H197        H  0.09159406  0.44116475  0.18333687     0.11000
Cu198      Cu  0.18317984  0.51284351  0.22014991     0.44170
Cu199      Cu  0.10584780  0.48208773  0.24959313     0.41990
Cu200      Cu  0.13549826  0.56011512  0.27791524     0.43880
N201        N  0.19598610  0.55689195  0.23843985    -0.32620
N202        N  0.17853030  0.57410846  0.25831465    -0.26880
C203        C  0.19362620  0.60165374  0.26428370    -0.02980
C204        C  0.22155524  0.60172304  0.24718796     0.09240
C205        C  0.22245762  0.57323562  0.23102506     0.03040
H206        H  0.18486273  0.62017107  0.27992088     0.10690
H207        H  0.24079786  0.56503188  0.21489697     0.09770
N208        N  0.10029753  0.53392278  0.30044302    -0.34070
N209        N  0.08985930  0.50554969  0.29129362    -0.26250
C210        C  0.07391398  0.49228610  0.31586354    -0.01490
C211        C  0.07446903  0.51332934  0.34123874     0.07120
C212        C  0.09128946  0.53932175  0.33062331     0.05210
H213        H  0.06549024  0.46796055  0.31634740     0.10320
H214        H  0.09950420  0.55912961  0.34488953     0.09150
O215        O  0.12204813  0.46566502  0.95162273    -0.70890
O216        O  0.12467339  0.46569314  0.04722295    -0.71870
O217        O  0.17114887  0.46561368  0.99812217    -0.60490
O218        O  0.07554868  0.46572273  0.00073518    -0.68900
O219        O  0.07521038  0.41287251  0.00071520    -0.68450
O220        O  0.17138829  0.41276178  0.99817682    -0.59710
O221        O  0.12458892  0.41284324  0.04754374    -0.72210
O222        O  0.12203692  0.41281502  0.95133250    -0.70990
Cu223      Cu  0.12335187  0.46749240  0.99942294     1.04560
Cu224      Cu  0.12329973  0.41094568  0.99943950     1.04330
C225        C  0.12162938  0.43934658  0.93647266     0.95310
C226        C  0.12509441  0.43938565  0.06238726     0.94450
C227        C  0.18626995  0.43927535  0.99772801     0.86590
C228        C  0.06037812  0.43942050  0.00117806     0.92860
N229        N  0.83170603  0.49409296  0.03305613    -0.25240
N230        N  0.82236536  0.46588727  0.02232762    -0.33090
C231        C  0.79226121  0.46048119  0.03157578     0.03110
C232        C  0.78189293  0.48629690  0.04884087     0.09130
C233        C  0.80734290  0.50724773  0.04940466    -0.03970
H234        H  0.77783999  0.44085258  0.02322010     0.09800
H235        H  0.80705291  0.53149631  0.05814849     0.11000
Cu236      Cu  0.84430895  0.44019305  0.98633905     0.44170
Cu237      Cu  0.87333868  0.51760260  0.01708896     0.41990
Cu238      Cu  0.90186972  0.48803369  0.93901372     0.43880
N239        N  0.86267144  0.42737431  0.94235840    -0.32620
N240        N  0.88247467  0.44484583  0.92509409    -0.26880
C241        C  0.88858153  0.42961214  0.89763759    -0.02980
C242        C  0.87163567  0.40157908  0.89770540     0.09240
C243        C  0.85543261  0.40075962  0.92616129     0.03040
H244        H  0.90419535  0.43831427  0.87914963     0.10690
H245        H  0.83945070  0.38239392  0.93444564     0.09770
N246        N  0.92419850  0.52335180  0.96529014    -0.34070
N247        N  0.91497063  0.53372963  0.99366530    -0.26250
C248        C  0.93945679  0.54973547  0.00700584    -0.01490
C249        C  0.96486918  0.54929835  0.98601605     0.07120
C250        C  0.95435687  0.53247458  0.95997027     0.05210
H251        H  0.93985904  0.55811972  0.03137320     0.10320
H252        H  0.96869284  0.52432189  0.94018785     0.09150
N253        N  0.33172165  0.46571269  0.99463070    -0.25240
N254        N  0.32249552  0.47625525  0.96631979    -0.33090
C255        C  0.29238973  0.46703994  0.96086718     0.03110
C256        C  0.28189591  0.44998585  0.98676221     0.09130
C257        C  0.30727740  0.44951547  0.00781250    -0.03970
H258        H  0.27804594  0.47529655  0.94112362     0.09800
H259        H  0.30688742  0.44094972  0.03211373     0.11000
Cu260      Cu  0.34461903  0.51201850  0.94051795     0.44170
Cu261      Cu  0.37334462  0.48176674  0.01811880     0.41990
Cu262      Cu  0.40189605  0.55971504  0.98865020     0.43880
N263        N  0.36309952  0.55593328  0.92770460    -0.32620
N264        N  0.38274192  0.57331635  0.94526080    -0.26880
C265        C  0.38895701  0.60067801  0.92993016    -0.02980
C266        C  0.37225705  0.60043174  0.90175585     0.09240
C267        C  0.35608367  0.57197089  0.90094635     0.03040
H268        H  0.40451447  0.61924926  0.93867382     0.10690
H269        H  0.34023833  0.56355592  0.88244843     0.09770
N270        N  0.42418901  0.53351944  0.02402864    -0.34070
N271        N  0.41498079  0.50512849  0.03434952    -0.26250
C272        C  0.43946368  0.49179583  0.05038712    -0.01490
C273        C  0.46484956  0.51282706  0.05002820     0.07120
C274        C  0.45432698  0.53887672  0.03321518     0.05210
H275        H  0.43988621  0.46745116  0.05873388     0.10320
H276        H  0.46863022  0.55865364  0.02511480     0.09150
O277        O  0.67158518  0.49812969  0.08654157    -0.70890
O278        O  0.57542765  0.50101339  0.08687988    -0.71870
O279        O  0.62205467  0.45149288  0.08676629    -0.60490
O280        O  0.62494334  0.54766356  0.08665182    -0.68900
O281        O  0.62478608  0.54730711  0.03380114    -0.68450
O282        O  0.62181496  0.45171745  0.03391312    -0.59710
O283        O  0.57551662  0.50098570  0.03402598    -0.72210
O284        O  0.67110096  0.49801768  0.03369055    -0.70990
Cu285      Cu  0.62351136  0.49957717  0.08858553     1.04560
Cu286      Cu  0.62329991  0.49950537  0.03203609     1.04330
C287        C  0.68634176  0.49758876  0.05995849     0.95310
C288        C  0.56047416  0.50147834  0.06040198     0.94450
C289        C  0.62142000  0.43660840  0.06025256     0.86590
C290        C  0.62535722  0.56248712  0.06010229     0.92860
N291        N  0.63008284  0.29189284  0.96613184    -0.25240
N292        N  0.65812930  0.30140900  0.97712119    -0.33090
C293        C  0.66335483  0.33160633  0.96806404     0.03110
C294        C  0.63758580  0.34185309  0.95065475     0.09130
C295        C  0.61685580  0.31623270  0.94980044    -0.03970
H296        H  0.68278706  0.34615401  0.97666052     0.09800
H297        H  0.59267704  0.31638394  0.94088845     0.11000
Cu298      Cu  0.68366825  0.27953807  0.01328225     0.44170
Cu299      Cu  0.60674063  0.25003747  0.98179840     0.41990
Cu300      Cu  0.63560012  0.22175124  0.06017450     0.43880
N301        N  0.69606242  0.26132952  0.05746943    -0.32620
N302        N  0.67848446  0.24146484  0.07455659    -0.26880
C303        C  0.69332155  0.23562476  0.10228368    -0.02980
C304        C  0.72120545  0.25280393  0.10258633     0.09240
C305        C  0.72235130  0.26887495  0.07406094     0.03040
H306        H  0.68443074  0.22005874  0.12072704     0.10690
H307        H  0.74068882  0.28500504  0.06601505     0.09770
N308        N  0.60060418  0.19925651  0.03361937    -0.34070
N309        N  0.59047980  0.20839035  0.00512333    -0.26250
C310        C  0.57457835  0.18386159  0.99173008    -0.01490
C311        C  0.57481356  0.15852106  0.01282208     0.07120
C312        C  0.59142005  0.16912242  0.03897142     0.05210
H313        H  0.56636524  0.18339921  0.96729799     0.10320
H314        H  0.59935487  0.15486800  0.05890344     0.09150
N315        N  0.62937921  0.70793906  0.03352121    -0.25240
N316        N  0.65752025  0.69845632  0.02272695    -0.33090
C317        C  0.66277050  0.66829790  0.03190266     0.03110
C318        C  0.63692655  0.65803262  0.04917281     0.09130
C319        C  0.61611561  0.68360880  0.04982432    -0.03970
H320        H  0.68230963  0.65377194  0.02347873     0.09800
H321        H  0.59188362  0.68344667  0.05859614     0.11000
Cu322      Cu  0.68329926  0.72022369  0.98665565     0.44170
Cu323      Cu  0.60599819  0.74974336  0.01772330     0.41990
Cu324      Cu  0.63574224  0.77802788  0.93959790     0.43880
N325        N  0.69602927  0.73824642  0.94247821    -0.32620
N326        N  0.67859044  0.75817717  0.92531464    -0.26880
C327        C  0.69350493  0.76387602  0.89760905    -0.02980
C328        C  0.72130269  0.74654401  0.89738220     0.09240
C329        C  0.72230574  0.73052325  0.92594840     0.03040
H330        H  0.68469439  0.77945948  0.87907597     0.10690
H331        H  0.74056922  0.71425341  0.93406815     0.09770
N332        N  0.60054691  0.80058219  0.96583850    -0.34070
N333        N  0.59006025  0.79143656  0.99419486    -0.26250
C334        C  0.57406082  0.81600058  0.00742624    -0.01490
C335        C  0.57462602  0.84136993  0.98637982     0.07120
C336        C  0.59151306  0.83075790  0.96041629     0.05210
H337        H  0.56557568  0.81647485  0.03172395     0.10320
H338        H  0.59971110  0.84499415  0.94063181     0.09150
N339        N  0.58994324  0.99371580  0.20820528    -0.25240
N340        N  0.60056915  0.96547230  0.19883707    -0.33090
C341        C  0.59153858  0.96024475  0.16863048     0.03110
C342        C  0.57453282  0.98621204  0.15821776     0.09130
C343        C  0.57388050  0.00706214  0.18375395    -0.03970
H344        H  0.59989782  0.94061095  0.15419039     0.09800
H345        H  0.56530129  0.03137395  0.18348055     0.11000
Cu346      Cu  0.63622474  0.93942407  0.22093825     0.44170
Cu347      Cu  0.60576929  0.01705993  0.25002518     0.41990
Cu348      Cu  0.68343841  0.98681605  0.27889283     0.43880
N349        N  0.67993070  0.92616902  0.23967611    -0.32620
N350        N  0.69716154  0.94350003  0.25964290    -0.26880
C351        C  0.72438838  0.92799930  0.26607293    -0.02980
C352        C  0.72422763  0.89993440  0.24917942     0.09240
C353        C  0.69593833  0.89937724  0.23266138     0.03040
H354        H  0.74281359  0.93655011  0.28191904     0.10690
H355        H  0.68761932  0.88102537  0.21661049     0.09770
N356        N  0.65736037  0.02231979  0.30116196    -0.34070
N357        N  0.62910059  0.03293044  0.29183949    -0.26250
C358        C  0.61581190  0.04903538  0.31629731    -0.01490
C359        C  0.63672628  0.04842679  0.34178478     0.07120
C360        C  0.66266194  0.03139229  0.33134250     0.05210
H361        H  0.59151862  0.05764898  0.31660799     0.10320
H362        H  0.68235783  0.02309471  0.34573497     0.09150
O363        O  0.53761633  0.04804995  0.00113661    -0.70890
O364        O  0.53757424  0.95188053  0.99822827    -0.71870
O365        O  0.53759154  0.99850184  0.04776149    -0.60490
O366        O  0.53756386  0.00140521  0.95162564    -0.68900
O367        O  0.59041580  0.00142130  0.95188337    -0.68450
O368        O  0.59044150  0.99841740  0.04748348    -0.59710
O369        O  0.59042508  0.95213625  0.99816665    -0.72210
O370        O  0.59046569  0.04771995  0.00117378    -0.70990
Cu371      Cu  0.53571318  0.99996366  0.99969038     1.04560
Cu372      Cu  0.59226081  0.99992566  0.99967894     1.04330
C373        C  0.56415600  0.06288535  0.00163206     0.95310
C374        C  0.56409914  0.93701003  0.99769470     0.94450
C375        C  0.56411815  0.99794482  0.06262145     0.86590
C376        C  0.56408229  0.00189236  0.93675845     0.92860
N377        N  0.65741505  0.79146226  0.00614542    -0.25240
N378        N  0.64668800  0.80079561  0.03435989    -0.33090
C379        C  0.65600764  0.83087449  0.03980915     0.03110
C380        C  0.67330637  0.84123259  0.01401618     0.09130
C381        C  0.67381819  0.81579969  0.99303413    -0.03970
H382        H  0.64765386  0.84530862  0.05944198     0.09800
H383        H  0.68254039  0.81609241  0.96877593     0.11000
Cu384      Cu  0.61056149  0.77896577  0.05999610     0.44170
Cu385      Cu  0.64135392  0.74996883  0.98244766     0.41990
Cu386      Cu  0.56314516  0.72173332  0.01202219     0.43880
N387        N  0.56647658  0.76077748  0.07277253    -0.32620
N388        N  0.54919400  0.74105282  0.05521981    -0.26880
C389        C  0.52165005  0.73507133  0.07032126    -0.02980
C390        C  0.52165935  0.75200560  0.09836211     0.09240
C391        C  0.55018841  0.76808337  0.09931509     0.03040
H392        H  0.50308547  0.71955882  0.06148613     0.10690
H393        H  0.55845594  0.78408872  0.11773847     0.09770
N394        N  0.58920950  0.69945773  0.97652321    -0.34070
N395        N  0.61759397  0.70858482  0.96610184    -0.26250
C396        C  0.63073888  0.68410436  0.94991004    -0.01490
C397        C  0.60961854  0.65880486  0.95029117     0.07120
C398        C  0.58368975  0.66937054  0.96726043     0.05210
H399        H  0.65503952  0.68358208  0.94147574     0.10320
H400        H  0.56390150  0.65511670  0.97541264     0.09150
N401        N  0.61800311  0.29127320  0.03362145    -0.25240
N402        N  0.58977250  0.30052503  0.02287330    -0.33090
C403        C  0.58423464  0.33060188  0.03215325     0.03110
C404        C  0.60998056  0.34104240  0.04947273     0.09130
C405        C  0.63101856  0.31566613  0.05004165    -0.03970
H406        H  0.56457035  0.34497975  0.02375433     0.09800
H407        H  0.65524109  0.31607996  0.05879265     0.11000
Cu408      Cu  0.56421464  0.27851780  0.98683657     0.44170
Cu409      Cu  0.64178949  0.24980244  0.01750420     0.41990
Cu410      Cu  0.61244828  0.22114327  0.93949282     0.43880
N411        N  0.55149191  0.25993721  0.94292523    -0.32620
N412        N  0.56908066  0.24022080  0.92565764    -0.26880
C413        C  0.55375578  0.23381970  0.89832517    -0.02980
C414        C  0.52554895  0.25047513  0.89846930     0.09240
C415        C  0.52471887  0.26681352  0.92684430     0.03040
H416        H  0.56250371  0.21812160  0.87985812     0.10690
H417        H  0.50616809  0.28262917  0.93519600     0.09770
N418        N  0.64779086  0.19888821  0.96580910    -0.34070
N419        N  0.65804978  0.20814494  0.99421734    -0.26250
C420        C  0.67403772  0.18368516  0.00763336    -0.01490
C421        C  0.67373866  0.15825549  0.98663883     0.07120
C422        C  0.65699220  0.16874021  0.96052734     0.05210
H423        H  0.68233361  0.18333325  0.03204847     0.10320
H424        H  0.64894014  0.15438392  0.94071380     0.09150
N425        N  0.65764579  0.99328905  0.79194237    -0.25240
N426        N  0.64700501  0.96509039  0.80139835    -0.33090
C427        C  0.65621369  0.95986013  0.83155650     0.03110
C428        C  0.67335693  0.98579074  0.84184225     0.09130
C429        C  0.67388657  0.00662458  0.81628582    -0.03970
H430        H  0.64792754  0.94028802  0.84603237     0.09800
H431        H  0.68252810  0.03088714  0.81646932     0.11000
Cu432      Cu  0.61115645  0.93911885  0.77950835     0.44170
Cu433      Cu  0.64167470  0.01658969  0.75016012     0.41990
Cu434      Cu  0.56361868  0.98650981  0.72189232     0.43880
N435        N  0.56731305  0.92587658  0.76107323    -0.32620
N436        N  0.54997789  0.94322237  0.74120904    -0.26880
C437        C  0.52266082  0.92780204  0.73501295    -0.02980
C438        C  0.52286649  0.89977155  0.75195002     0.09240
C439        C  0.55128080  0.89915008  0.76825572     0.03040
H440        H  0.50411911  0.93640339  0.71931135     0.10690
H441        H  0.55965565  0.88081282  0.78429762     0.09770
N442        N  0.58952231  0.02207584  0.69955729    -0.34070
N443        N  0.61786555  0.03264826  0.70866098    -0.26250
C444        C  0.63090329  0.04886991  0.68415122    -0.01490
C445        C  0.60975378  0.04835794  0.65886109     0.07120
C446        C  0.58392905  0.03127318  0.66946759     0.05210
H447        H  0.65517068  0.05747272  0.68363029     0.10320
H448        H  0.56412049  0.02302221  0.65522696     0.09150
O449        O  0.71086270  0.95160822  0.00193968    -0.70890
O450        O  0.71089968  0.04777959  0.99872271    -0.71870
O451        O  0.71089339  0.00130624  0.04841576    -0.60490
O452        O  0.71085773  0.99807570  0.95222960    -0.68900
O453        O  0.65800975  0.99806479  0.95254672    -0.68450
O454        O  0.65804373  0.00138657  0.04812149    -0.59710
O455        O  0.65805096  0.04751966  0.99869043    -0.72210
O456        O  0.65801324  0.95194096  0.00199975    -0.70990
Cu457      Cu  0.71275627  0.99969223  0.00032539     1.04560
Cu458      Cu  0.65621140  0.99972994  0.00033859     1.04330
C459        C  0.68432310  0.93677607  0.00251723     0.95310
C460        C  0.68437393  0.06264993  0.99817503     0.94450
C461        C  0.68436216  0.00188399  0.06326720     0.86590
C462        C  0.68431658  0.99752277  0.93738607     0.92860
N463        N  0.83141726  0.03321622  0.50643217    -0.25240
N464        N  0.82205208  0.02209706  0.53447893    -0.33090
C465        C  0.79189579  0.03117223  0.53993841     0.03110
C466        C  0.78151931  0.04872385  0.51432317     0.09130
C467        C  0.80701635  0.04966138  0.49345037    -0.03970
H468        H  0.77746195  0.02247319  0.55936219     0.09800
H469        H  0.80670049  0.05865288  0.46933739     0.11000
Cu470      Cu  0.84390023  0.98572944  0.55974691     0.44170
Cu471      Cu  0.87303301  0.01752840  0.48260370     0.41990
Cu472      Cu  0.90137342  0.93903833  0.51150857     0.43880
N473        N  0.86198567  0.94147601  0.57205204    -0.32620
N474        N  0.88181134  0.92441655  0.55439507    -0.26880
C475        C  0.88766184  0.89665336  0.56916261    -0.02980
C476        C  0.87053226  0.89629644  0.59708773     0.09240
C477        C  0.85448301  0.92483702  0.59831476     0.03040
H478        H  0.90323657  0.87818432  0.56018546     0.10690
H479        H  0.83837292  0.93288234  0.61673903     0.09770
N480        N  0.92378345  0.96562204  0.47645641    -0.34070
N481        N  0.91463989  0.99411750  0.46632531    -0.26250
C482        C  0.93916860  0.00751123  0.45043355    -0.01490
C483        C  0.96451885  0.98641608  0.45066358     0.07120
C484        C  0.95391827  0.96026899  0.46726374     0.05210
H485        H  0.93961766  0.03194862  0.44224485     0.10320
H486        H  0.96818155  0.94033841  0.47520153     0.09150
N487        N  0.15738647  0.29172481  0.50580151    -0.25240
N488        N  0.14655908  0.30121541  0.53392380    -0.33090
C489        C  0.15581384  0.33134095  0.53922896     0.03110
C490        C  0.17319066  0.34157615  0.51344204     0.09130
C491        C  0.17381142  0.31601784  0.49261022    -0.03970
H492        H  0.14740335  0.34586623  0.55877427     0.09800
H493        H  0.18266093  0.31619018  0.46841786     0.11000
Cu494      Cu  0.11047952  0.27940946  0.55963060     0.44170
Cu495      Cu  0.14148056  0.24995485  0.48238908     0.41990
Cu496      Cu  0.06328151  0.22175706  0.51179882     0.43880
N497        N  0.06649145  0.26101824  0.57243457    -0.32620
N498        N  0.04928919  0.24117396  0.55493484    -0.26880
C499        C  0.02182829  0.23501897  0.57011250    -0.02980
C500        C  0.02180502  0.25196564  0.59814150     0.09240
C501        C  0.05022833  0.26822899  0.59901571     0.03040
H502        H  0.00336644  0.21933428  0.56136256     0.10690
H503        H  0.05846270  0.28425474  0.61743538     0.09770
N504        N  0.08954479  0.19923448  0.47661687    -0.34070
N505        N  0.11799142  0.20829909  0.46631331    -0.26250
C506        C  0.13124834  0.18370472  0.45038136    -0.01490
C507        C  0.11010596  0.15840192  0.45078537     0.07120
C508        C  0.08407575  0.16908914  0.46751979     0.05210
H509        H  0.15560838  0.18317917  0.44204125     0.10320
H510        H  0.06420378  0.15491059  0.47559439     0.09150
N511        N  0.09041499  0.70824245  0.50562076    -0.25240
N512        N  0.10078119  0.69905571  0.53401267    -0.33090
C513        C  0.09167602  0.66890082  0.53936652     0.03110
C514        C  0.07488594  0.65834257  0.51332080     0.09130
C515        C  0.07444566  0.68372839  0.49229348    -0.03970
H516        H  0.09983025  0.65459416  0.55917137     0.09800
H517        H  0.06608498  0.68330050  0.46790703     0.11000
Cu518      Cu  0.13611486  0.72138160  0.56024482     0.44170
Cu519      Cu  0.10652414  0.74985662  0.48218511     0.41990
Cu520      Cu  0.18390778  0.77909659  0.51320086     0.43880
N521        N  0.17939052  0.74052315  0.57418745    -0.32620
N522        N  0.19686780  0.76041523  0.55703427    -0.26880
C523        C  0.22359456  0.76736557  0.57318557    -0.02980
C524        C  0.22282850  0.75087681  0.60148961     0.09240
C525        C  0.19471577  0.73406994  0.60151171     0.03040
H526        H  0.24201090  0.78332160  0.56496741     0.10690
H527        H  0.18602876  0.71829886  0.61987257     0.09770
N528        N  0.15818764  0.80096442  0.47713823    -0.34070
N529        N  0.13007264  0.79149189  0.46627589    -0.26250
C530        C  0.11686190  0.81580154  0.44989895    -0.01490
C531        C  0.13764993  0.84136736  0.45059701     0.07120
C532        C  0.16345730  0.83111858  0.46795563     0.05210
H533        H  0.09264089  0.81599602  0.44109363     0.10320
H534        H  0.18295048  0.84564736  0.47643759     0.09150
O535        O  0.07532599  0.99810483  0.46636514    -0.70890
O536        O  0.17090695  0.00135251  0.46636356    -0.71870
O537        O  0.12150374  0.04752405  0.46644432    -0.60490
O538        O  0.12479596  0.95194224  0.46627571    -0.68900
O539        O  0.12473331  0.95173883  0.41342333    -0.68450
O540        O  0.12154394  0.04789387  0.41359499    -0.59710
O541        O  0.17118216  0.00138804  0.41351106    -0.72210
O542        O  0.07501701  0.99824470  0.41351697    -0.70990
Cu543      Cu  0.12312298  0.99972600  0.46818349     1.04560
Cu544      Cu  0.12310785  0.99981751  0.41163643     1.04330
C545        C  0.06016920  0.99766405  0.44005017     0.95310
C546        C  0.18604105  0.00189583  0.44004167     0.94450
C547        C  0.12103819  0.06271016  0.44014961     0.86590
C548        C  0.12537310  0.93684659  0.43992831     0.92860
N549        N  0.62993816  0.96529464  0.70814011    -0.25240
N550        N  0.65805565  0.97614380  0.69868134    -0.33090
C551        C  0.66332667  0.96700527  0.66850843     0.03110
C552        C  0.63750557  0.94969648  0.65822079     0.09130
C553        C  0.61670028  0.94898664  0.68379102    -0.03970
H554        H  0.68281326  0.97546869  0.65401906     0.09800
H555        H  0.59249014  0.94020657  0.68360312     0.11000
Cu556      Cu  0.68375064  0.01220443  0.72056538     0.44170
Cu557      Cu  0.60649116  0.98113530  0.74987283     0.41990
Cu558      Cu  0.63591950  0.05950471  0.77798772     0.43880
N559        N  0.69665753  0.05617851  0.73894955    -0.32620
N560        N  0.67914911  0.07343048  0.75874266    -0.26880
C561        C  0.69435502  0.10087854  0.76490234    -0.02980
C562        C  0.72241831  0.10084462  0.74801484     0.09240
C563        C  0.72327598  0.07239491  0.73177721     0.03040
H564        H  0.68558120  0.11939694  0.78053357     0.10690
H565        H  0.74169501  0.06412603  0.71577458     0.09770
N566        N  0.60055029  0.03335150  0.80034218    -0.34070
N567        N  0.59022389  0.00489807  0.79129900    -0.26250
C568        C  0.57415238  0.99175160  0.81584705    -0.01490
C569        C  0.57450744  0.01294479  0.84109992     0.07120
C570        C  0.59133599  0.03890957  0.83043079     0.05210
H571        H  0.56579714  0.96739898  0.81642671     0.10320
H572        H  0.59944624  0.05880278  0.84463888     0.09150
N573        N  0.61734212  0.96549337  0.29146028    -0.25240
N574        N  0.58904606  0.97609162  0.30068854    -0.33090
C575        C  0.58355793  0.96680479  0.33076886     0.03110
C576        C  0.60940924  0.94965052  0.34123729     0.09130
C577        C  0.63046057  0.94918834  0.31587004    -0.03970
H578        H  0.56384383  0.97508975  0.34512310     0.09800
H579        H  0.65476315  0.94058300  0.31627150     0.11000
Cu580      Cu  0.56326856  0.01198716  0.27866976     0.44170
Cu581      Cu  0.64107175  0.98166788  0.25001534     0.41990
Cu582      Cu  0.61122218  0.05958936  0.22145200     0.43880
N583        N  0.55022092  0.05581282  0.26008633    -0.32620
N584        N  0.56772575  0.07316716  0.24039179    -0.26880
C585        C  0.55227759  0.10043458  0.23398835    -0.02980
C586        C  0.52406286  0.10015545  0.25062367     0.09240
C587        C  0.52335981  0.07176840  0.26695856     0.03040
H588        H  0.56095474  0.11893388  0.21837442     0.10690
H589        H  0.50490041  0.06336444  0.28276614     0.09770
N590        N  0.64693381  0.03364776  0.19935476    -0.34070
N591        N  0.65741057  0.00530646  0.20857480    -0.26250
C592        C  0.67371717  0.99215634  0.18417985    -0.01490
C593        C  0.67338035  0.01323888  0.15883554     0.07120
C594        C  0.65629304  0.03913685  0.16929751     0.05210
H595        H  0.68225721  0.96783835  0.18376588     0.10320
H596        H  0.64813248  0.05891729  0.15495883     0.09150
N597        N  0.41485438  0.96574535  0.50574988    -0.25240
N598        N  0.42419595  0.97627906  0.53403411    -0.33090
C599        C  0.45431109  0.96700507  0.53937542     0.03110
C600        C  0.46469460  0.94992647  0.51344082     0.09130
C601        C  0.43923388  0.94950712  0.49248071    -0.03970
H602        H  0.46872733  0.97521058  0.55908458     0.09800
H603        H  0.43951268  0.94092065  0.46816972     0.11000
Cu604      Cu  0.40219383  0.01203816  0.56003607     0.44170
Cu605      Cu  0.37315448  0.98181156  0.48235520     0.41990
Cu606      Cu  0.34458193  0.05962742  0.51250523     0.43880
N607        N  0.38357809  0.05580877  0.57328096    -0.32620
N608        N  0.36374699  0.07315521  0.55590368    -0.26880
C609        C  0.35737990  0.10038666  0.57141378    -0.02980
C610        C  0.37416962  0.10011234  0.59953405     0.09240
C611        C  0.39056588  0.07175147  0.60011621     0.03040
H612        H  0.34164988  0.11890358  0.56282171     0.10690
H613        H  0.40653004  0.06334317  0.61851374     0.09770
N614        N  0.32229976  0.03369177  0.47692825    -0.34070
N615        N  0.33151433  0.00539083  0.46633452    -0.26250
C616        C  0.30703043  0.99223478  0.45016059    -0.01490
C617        C  0.28164236  0.01326638  0.45072353     0.07120
C618        C  0.29216526  0.03914357  0.46779099     0.05210
H619        H  0.30660044  0.96795217  0.44155578     0.10320
H620        H  0.27784246  0.05888823  0.47608389     0.09150
O621        O  0.62495389  0.91237440  0.54782892    -0.70890
O622        O  0.62151177  0.91235066  0.45167401    -0.71870
O623        O  0.67132049  0.91239019  0.49802402    -0.60490
O624        O  0.57512712  0.91236565  0.50144526    -0.68900
O625        O  0.57541599  0.96521411  0.50149074    -0.68450
O626        O  0.67098347  0.96524034  0.49796349    -0.59710
O627        O  0.62143301  0.96520205  0.45195489    -0.72210
O628        O  0.62498300  0.96522398  0.54753391    -0.70990
Cu629      Cu  0.62322730  0.91049269  0.49974742     1.04560
Cu630      Cu  0.62320099  0.96703833  0.49973992     1.04330
C631        C  0.62556078  0.93890768  0.56268069     0.95310
C632        C  0.62090410  0.93887688  0.43681808     0.94450
C633        C  0.68615073  0.93893279  0.49740105     0.86590
C634        C  0.56026891  0.93890113  0.50201233     0.92860
N635        N  0.33141591  0.99358304  0.53382122    -0.25240
N636        N  0.32196406  0.96543106  0.52304306    -0.33090
C637        C  0.29183810  0.96013467  0.53229430     0.03110
C638        C  0.28157766  0.98596581  0.54960889     0.09130
C639        C  0.30711359  0.00680506  0.55020223    -0.03970
H640        H  0.27732366  0.94059924  0.52388173     0.09800
H641        H  0.30691351  0.03104979  0.55895769     0.11000
Cu642      Cu  0.34376128  0.93974550  0.48692546     0.44170
Cu643      Cu  0.37305345  0.01705465  0.51782898     0.41990
Cu644      Cu  0.40130492  0.98766740  0.43964675     0.43880
N645        N  0.36199624  0.92706561  0.44282433    -0.32620
N646        N  0.38179219  0.94458889  0.42560336    -0.26880
C647        C  0.38775469  0.92953027  0.39802292    -0.02980
C648        C  0.37072756  0.90155234  0.39795223     0.09240
C649        C  0.35461819  0.90058309  0.42646406     0.03040
H650        H  0.40330693  0.93832989  0.37952806     0.10690
H651        H  0.33858611  0.88222370  0.43466170     0.09770
N652        N  0.42375035  0.02290568  0.46590455    -0.34070
N653        N  0.41461223  0.03323855  0.49432297    -0.26250
C654        C  0.43914881  0.04920099  0.50762112    -0.01490
C655        C  0.46450157  0.04877571  0.48655934     0.07120
C656        C  0.45390043  0.03201046  0.46051270     0.05210
H657        H  0.43963245  0.05753129  0.53200663     0.10320
H658        H  0.46817322  0.02387529  0.44067739     0.09150
N659        N  0.11792153  0.79158533  0.53364915    -0.25240
N660        N  0.08969994  0.80082592  0.52286057    -0.33090
C661        C  0.08418308  0.83094017  0.53202797     0.03110
C662        C  0.10993280  0.84143154  0.54930727     0.09130
C663        C  0.13096174  0.81603663  0.54996740    -0.03970
H664        H  0.06450703  0.84528674  0.52360917     0.09800
H665        H  0.15519098  0.81643601  0.55874744     0.11000
Cu666      Cu  0.06405544  0.77871672  0.48694028     0.44170
Cu667      Cu  0.14163763  0.74998085  0.51772486     0.41990
Cu668      Cu  0.11192083  0.72132965  0.43962224     0.43880
N669        N  0.05098563  0.76006725  0.44315882    -0.32620
N670        N  0.06847051  0.74028758  0.42586700    -0.26880
C671        C  0.05300977  0.73382566  0.39862110    -0.02980
C672        C  0.02481204  0.75050989  0.39884397     0.09240
C673        C  0.02413984  0.76692915  0.42718409     0.03040
H674        H  0.06166997  0.71808822  0.38014594     0.10690
H675        H  0.00565660  0.78280433  0.43557173     0.09770
N676        N  0.14747234  0.69919939  0.46578758    -0.34070
N677        N  0.15785255  0.70840313  0.49417540    -0.26250
C678        C  0.17404034  0.68396090  0.50739506    -0.01490
C679        C  0.17374164  0.65861031  0.48630058     0.07120
C680        C  0.15679224  0.66911932  0.46033531     0.05210
H681        H  0.18250350  0.68355110  0.53174523     0.10320
H682        H  0.14870684  0.65480640  0.44050189     0.09150
N683        N  0.83145067  0.96596650  0.49362942    -0.25240
N684        N  0.82200237  0.97709763  0.46560867    -0.33090
C685        C  0.79190859  0.96784136  0.46012805     0.03110
C686        C  0.78165199  0.95014828  0.48568918     0.09130
C687        C  0.80716196  0.94933441  0.50656514    -0.03970
H688        H  0.77740263  0.97647206  0.44066650     0.09800
H689        H  0.80692807  0.94023448  0.53065695     0.11000
Cu690      Cu  0.84372069  0.01355321  0.44035286     0.44170
Cu691      Cu  0.87306455  0.98175713  0.51742211     0.41990
Cu692      Cu  0.90125365  0.06028949  0.48849513     0.43880
N693        N  0.86187331  0.05775009  0.42794133    -0.32620
N694        N  0.88172512  0.07481476  0.44556093    -0.26880
C695        C  0.88767657  0.10250165  0.43069719    -0.02980
C696        C  0.87058497  0.10280500  0.40274486     0.09240
C697        C  0.85445407  0.07431312  0.40160203     0.03040
H698        H  0.90329703  0.12093630  0.43961493     0.10690
H699        H  0.83835851  0.06624126  0.38317057     0.09770
N700        N  0.92371712  0.03375695  0.52355533    -0.34070
N701        N  0.91464354  0.00524595  0.53368698    -0.26250
C702        C  0.93921050  0.99190371  0.54958497    -0.01490
C703        C  0.96450842  0.01305419  0.54935458     0.07120
C704        C  0.95384374  0.03917987  0.53274806     0.05210
H705        H  0.93971842  0.96748526  0.55778161     0.10320
H706        H  0.96802959  0.05910709  0.52482623     0.09150
N707        N  0.08990954  0.29146213  0.49387440    -0.25240
N708        N  0.10059073  0.30069623  0.46562095    -0.33090
C709        C  0.09144352  0.33082967  0.46016564     0.03110
C710        C  0.07429000  0.34131661  0.48600379     0.09130
C711        C  0.07367129  0.31591782  0.50700326    -0.03970
H712        H  0.09984107  0.34517472  0.44054255     0.09800
H713        H  0.06505673  0.31634230  0.53125268     0.11000
Cu714      Cu  0.13648306  0.27862311  0.43992935     0.44170
Cu715      Cu  0.10596833  0.24995245  0.51758034     0.41990
Cu716      Cu  0.18387665  0.22117547  0.48789897     0.43880
N717        N  0.18035896  0.26009009  0.42704454    -0.32620
N718        N  0.19765519  0.24032398  0.44454622    -0.26880
C719        C  0.22498601  0.23401243  0.42918512    -0.02980
C720        C  0.22481084  0.25077702  0.40104532     0.09240
C721        C  0.19641586  0.26708915  0.40029355     0.03040
H722        H  0.24349120  0.21831620  0.43787616     0.10690
H723        H  0.18804591  0.28298374  0.38182543     0.09770
N724        N  0.15768266  0.19902155  0.52339778    -0.34070
N725        N  0.12934278  0.20833721  0.53379170    -0.26250
C726        C  0.11598976  0.18393899  0.54990948    -0.01490
C727        C  0.13694756  0.15848339  0.54955000     0.07120
C728        C  0.16297728  0.16888933  0.53263826     0.05210
H729        H  0.09163224  0.18363536  0.55832999     0.10320
H730        H  0.18272760  0.15448428  0.52451042     0.09150
O731        O  0.12160496  0.95220956  0.53389474    -0.70890
O732        O  0.12479195  0.04779186  0.53396529    -0.71870
O733        O  0.17097460  0.99838785  0.53403581    -0.60490
O734        O  0.07539013  0.00159166  0.53382503    -0.68900
O735        O  0.07498670  0.00151038  0.58667257    -0.68450
O736        O  0.17116162  0.99840735  0.58688796    -0.59710
O737        O  0.12463205  0.04806312  0.58681493    -0.72210
O738        O  0.12154559  0.95188759  0.58674512    -0.70990
Cu739      Cu  0.12319102  0.00000216  0.53211075     1.04560
Cu740      Cu  0.12307409  0.99997230  0.58865668     1.04330
C741        C  0.12107402  0.93704781  0.56020186     0.95310
C742        C  0.12525496  0.06292664  0.56029171     0.94450
C743        C  0.18606559  0.99784374  0.56038674     0.86590
C744        C  0.06018536  0.00203978  0.56010824     0.92860
N745        N  0.90812124  0.30830343  0.24276390    -0.25240
N746        N  0.92093317  0.29539224  0.26845762    -0.33090
C747        C  0.94704552  0.31194509  0.27659350     0.03110
C748        C  0.95059974  0.33627812  0.25493563     0.09130
C749        C  0.92570794  0.33344946  0.23379944    -0.03970
H750        H  0.96233472  0.30648977  0.29662576     0.09800
H751        H  0.92080757  0.34833414  0.21334755     0.11000
Cu752      Cu  0.90282976  0.25571950  0.29092727     0.44170
Cu753      Cu  0.86784336  0.29097010  0.22076847     0.41990
Cu754      Cu  0.83248245  0.22090233  0.25592846     0.43880
N755        N  0.88065018  0.21565597  0.30852785    -0.32620
N756        N  0.85488514  0.20289639  0.29571200    -0.26880
C757        C  0.84663585  0.17692932  0.31244330    -0.02980
C758        C  0.86829637  0.17341909  0.33679800     0.09240
C759        C  0.88954777  0.19818408  0.33378537     0.03040
H760        H  0.82654203  0.16171807  0.30709989     0.10690
H761        H  0.91004357  0.20307621  0.34862860     0.09770
N762        N  0.81502505  0.24303330  0.21575285    -0.34070
N763        N  0.82797005  0.26867795  0.20289312    -0.26250
C764        C  0.81132109  0.27689572  0.17685741    -0.01490
C765        C  0.78688170  0.25533773  0.17341131     0.07120
C766        C  0.78975235  0.23417588  0.19827581     0.05210
H767        H  0.81678838  0.29685542  0.16156528     0.10320
H768        H  0.77484672  0.21379123  0.20320958     0.09150
N769        N  0.88841095  0.69838770  0.20818978    -0.25240
N770        N  0.86267190  0.71118630  0.19535304    -0.33090
C771        C  0.85400750  0.69395220  0.16985552     0.03110
C772        C  0.87537979  0.66930131  0.16672349     0.09130
C773        C  0.89687705  0.67263565  0.19123555    -0.03970
H774        H  0.83366568  0.69900694  0.15484662     0.09800
H775        H  0.91710122  0.65751922  0.19645739     0.11000
Cu776      Cu  0.84044047  0.75119011  0.21302055     0.44170
Cu777      Cu  0.91071132  0.71625142  0.24806532     0.41990
Cu778      Cu  0.87553856  0.78641905  0.28317426     0.43880
N779        N  0.82259220  0.79107963  0.23531293    -0.32620
N780        N  0.83543324  0.80398517  0.26099671    -0.26880
C781        C  0.81816521  0.82946738  0.26965732    -0.02980
C782        C  0.79345131  0.83251495  0.24834126     0.09240
C783        C  0.79678411  0.80796858  0.22688238     0.03040
H784        H  0.82323459  0.84451811  0.28996028     0.10690
H785        H  0.78162812  0.80267611  0.20671639     0.09770
N786        N  0.91552928  0.76417800  0.30092224    -0.34070
N787        N  0.92839861  0.73848618  0.28805793    -0.26250
C788        C  0.95396175  0.72985572  0.30521462    -0.01490
C789        C  0.95711260  0.75119677  0.32988764     0.07120
C790        C  0.93253436  0.77264291  0.32664454     0.05210
H791        H  0.96900488  0.70955454  0.30009137     0.10320
H792        H  0.92730393  0.79283059  0.34180314     0.09150
N793        N  0.40884802  0.74174989  0.19251306    -0.25240
N794        N  0.42160840  0.76744183  0.20547281    -0.33090
C795        C  0.44766021  0.77569848  0.18888359     0.03110
C796        C  0.45122717  0.75411520  0.16447451     0.09130
C797        C  0.42640545  0.73290564  0.16729868    -0.03970
H798        H  0.46287174  0.79576311  0.19434265     0.09800
H799        H  0.42151455  0.71249493  0.15234067     0.11000
Cu800      Cu  0.40346095  0.78977886  0.24521059     0.44170
Cu801      Cu  0.36863027  0.71964272  0.20982841     0.41990
Cu802      Cu  0.33311778  0.75457355  0.27990913     0.43880
N803        N  0.38117205  0.80724188  0.28528050    -0.32620
N804        N  0.35542236  0.79435372  0.29798366    -0.26880
C805        C  0.34707773  0.81103257  0.32396022    -0.02980
C806        C  0.36866797  0.83542714  0.32753070     0.09240
C807        C  0.38997411  0.83250407  0.30279818     0.03040
H808        H  0.32698548  0.80564010  0.33910673     0.10690
H809        H  0.41039459  0.84738983  0.29795884     0.09770
N810        N  0.31574697  0.71444189  0.25767051    -0.34070
N811        N  0.32875249  0.70165723  0.23201069    -0.26250
C812        C  0.31212088  0.67565943  0.22367431    -0.01490
C813        C  0.28763671  0.67215116  0.24516493     0.07120
C814        C  0.29045728  0.69694972  0.26641157     0.05210
H815        H  0.31762044  0.66042043  0.20361763     0.10320
H816        H  0.27546565  0.70185354  0.28678285     0.09150
N817        N  0.35790210  0.69895916  0.79320914    -0.25240
N818        N  0.38359916  0.71177512  0.80610474    -0.33130
C819        C  0.39229283  0.69450009  0.83155655     0.03110
C820        C  0.37098240  0.66980649  0.83460109     0.09130
C821        C  0.34948995  0.67314497  0.81008479    -0.03970
H822        H  0.41263336  0.69953309  0.84656297     0.09800
H823        H  0.32935020  0.65798061  0.80478679     0.11000
Cu824      Cu  0.40585205  0.75177777  0.78856443     0.44170
Cu825      Cu  0.33564634  0.71680645  0.75330000     0.41990
Cu826      Cu  0.37103838  0.78696748  0.71838238     0.43880
N827        N  0.42387347  0.79157919  0.76633065    -0.32620
N828        N  0.41112563  0.80448956  0.74060741    -0.26880
C829        C  0.42852739  0.82985895  0.73191455    -0.02980
C830        C  0.45322994  0.83282320  0.75325798     0.09240
C831        C  0.44975276  0.80834555  0.77476153     0.03040
H832        H  0.42358321  0.84485986  0.71155105     0.10690
H833        H  0.46488471  0.80298928  0.79493375     0.09770
N834        N  0.33115451  0.76472677  0.70042547    -0.34070
N835        N  0.31819881  0.73904601  0.71320143    -0.26250
C836        C  0.29278273  0.73038477  0.69583306    -0.01490
C837        C  0.28983459  0.75170833  0.67111557     0.07120
C838        C  0.31436610  0.77316510  0.67455082     0.05210
H839        H  0.27775972  0.71010279  0.70081242     0.10320
H840        H  0.31972544  0.79328800  0.65942560     0.09150
N841        N  0.41628841  0.26433501  0.80068964    -0.25240
N842        N  0.42901892  0.23858860  0.78780381    -0.33090
C843        C  0.45461352  0.22988565  0.80487128     0.03110
C844        C  0.45792135  0.25124650  0.82950264     0.09130
C845        C  0.43341034  0.27277156  0.82633622    -0.03970
H846        H  0.46955879  0.20951766  0.79972523     0.09800
H847        H  0.42829506  0.29298311  0.84150127     0.11000
Cu848      Cu  0.41106475  0.21639488  0.74793126     0.44170
Cu849      Cu  0.37632164  0.28666120  0.78308526     0.41990
Cu850      Cu  0.34072873  0.25151152  0.71311817     0.43880
N851        N  0.38852132  0.19853852  0.70821041    -0.32620
N852        N  0.36276610  0.21137938  0.69544657    -0.26880
C853        C  0.35394849  0.19408878  0.67003603    -0.02980
C854        C  0.37523910  0.16936299  0.66689471     0.09240
C855        C  0.39684310  0.17271222  0.69130423     0.03040
H856        H  0.33355811  0.19915314  0.65509462     0.10690
H857        H  0.41704263  0.15755291  0.69649335     0.09770
N858        N  0.32318968  0.29152692  0.73547107    -0.34070
N859        N  0.33622648  0.30438121  0.76108198    -0.26250
C860        C  0.31917451  0.32998443  0.76979850    -0.01490
C861        C  0.29439010  0.33317403  0.74859705     0.07120
C862        C  0.29745591  0.30858219  0.72714471     0.05210
H863        H  0.32445219  0.34503200  0.79004949     0.10320
H864        H  0.28218121  0.30338535  0.70704217     0.09150
N865        N  0.85672640  0.29335828  0.79879253    -0.25240
N866        N  0.88236026  0.30628588  0.78589801    -0.33090
C867        C  0.89111057  0.33171736  0.80318891     0.03110
C868        C  0.86989460  0.33471752  0.82798211     0.09130
C869        C  0.84840550  0.31019016  0.82468071    -0.03970
H870        H  0.91140699  0.34669564  0.79812552     0.09800
H871        H  0.82837054  0.30484384  0.83992046     0.11000
Cu872      Cu  0.90450162  0.28875991  0.74580432     0.44170
Cu873      Cu  0.83448768  0.25340436  0.78097400     0.41990
Cu874      Cu  0.86974856  0.21847498  0.71070868     0.43880
N875        N  0.92247958  0.26650313  0.70597556    -0.32620
N876        N  0.90975694  0.24075010  0.69310278    -0.26880
C877        C  0.92716235  0.23202664  0.66774036    -0.02980
C878        C  0.95183830  0.25338360  0.66473862     0.09240
C879        C  0.94834748  0.27492405  0.68918969     0.03040
H880        H  0.92225634  0.21161282  0.65278856     0.10690
H881        H  0.96347180  0.29508283  0.69453050     0.09770
N882        N  0.83000761  0.20043124  0.73311349    -0.34070
N883        N  0.81709792  0.21320627  0.75882869    -0.26250
C884        C  0.79181935  0.19572501  0.76763476    -0.01490
C885        C  0.78890514  0.17094064  0.74637937     0.07120
C886        C  0.81332294  0.17445411  0.72481006     0.05210
H887        H  0.77686041  0.20065979  0.78802505     0.10320
H888        H  0.81870705  0.15926415  0.70468646     0.09150
N889        N  0.90786269  0.69052165  0.75673745    -0.25240
N890        N  0.92062676  0.70341805  0.73102168    -0.33090
C891        C  0.94675231  0.68687651  0.72286711     0.03110
C892        C  0.95035969  0.66255983  0.74454451     0.09130
C893        C  0.92549066  0.66539055  0.76570782    -0.03970
H894        H  0.96198904  0.69232484  0.70285736     0.09800
H895        H  0.92064664  0.65054557  0.78616057     0.11000
Cu896      Cu  0.90246442  0.74308036  0.70855855     0.44170
Cu897      Cu  0.86760259  0.70787675  0.77877815     0.41990
Cu898      Cu  0.83214308  0.77793376  0.74365057     0.43880
N899        N  0.88026469  0.78316427  0.69100132    -0.32620
N900        N  0.85451522  0.79593980  0.70384009    -0.26880
C901        C  0.84629081  0.82194427  0.68714488    -0.02980
C902        C  0.86794594  0.82546085  0.66279193     0.09240
C903        C  0.88917294  0.80066114  0.66576954     0.03040
H904        H  0.82621756  0.83720199  0.69252980     0.10690
H905        H  0.90966894  0.79577728  0.65093835     0.09770
N906        N  0.81478493  0.75584177  0.78390369    -0.34070
N907        N  0.82777045  0.73019996  0.79675141    -0.26250
C908        C  0.81121939  0.72203696  0.82285902    -0.01490
C909        C  0.78680058  0.74361744  0.82637866     0.07120
C910        C  0.78958952  0.76473795  0.80146886     0.05210
H911        H  0.81675710  0.70207426  0.83818641     0.10320
H912        H  0.77465747  0.78517445  0.79656448     0.09150
N913        N  0.42822519  0.21143559  0.23895743    -0.25240
N914        N  0.41538003  0.19864626  0.26468392    -0.33090
C915        C  0.43223963  0.17280376  0.27307488     0.03110
C916        C  0.45670063  0.16940953  0.25153000     0.09130
C917        C  0.45364017  0.19411294  0.23021178    -0.03970
H918        H  0.42699844  0.15769832  0.29324161     0.09800
H919        H  0.46860997  0.19913539  0.20989417     0.11000
Cu920      Cu  0.37561466  0.21663493  0.28706916     0.44170
Cu921      Cu  0.41067491  0.25153932  0.21684709     0.41990
Cu922      Cu  0.34067370  0.28695299  0.25210602     0.43880
N923        N  0.33571550  0.23895603  0.30484134    -0.32620
N924        N  0.32291257  0.26470905  0.29204069    -0.26880
C925        C  0.29721292  0.27320270  0.30905591    -0.02980
C926        C  0.29392496  0.25170881  0.33357224     0.09240
C927        C  0.31853980  0.23030856  0.33037529     0.03040
H928        H  0.28209061  0.29342390  0.30385944     0.10690
H929        H  0.32359486  0.20994953  0.34534682     0.09770
N930        N  0.36283745  0.30446980  0.21202113    -0.34070
N931        N  0.38846006  0.29150559  0.19912005    -0.26250
C932        C  0.39687552  0.30838553  0.17331374    -0.01490
C933        C  0.37546696  0.33298097  0.17005725     0.07120
C934        C  0.35419867  0.32998013  0.19480011     0.05210
H935        H  0.41698118  0.30304660  0.15810649     0.10320
H936        H  0.33393417  0.34507221  0.19991522     0.09150
C937        C  0.12706361  0.09716551  0.55977308    -0.11220
C938        C  0.13027537  0.12560904  0.55680458    -0.12780
C939        C  0.26965394  0.25146528  0.35738293    -0.11220
C940        C  0.24920427  0.25117264  0.37735127    -0.12780
C941        C  0.02593226  0.00365196  0.55950126    -0.11220
C942        C  0.99745713  0.00661891  0.55653194    -0.12780
C943        C  0.86898436  0.14865302  0.36011416    -0.11220
C944        C  0.86967969  0.12774580  0.37961105    -0.12780
C945        C  0.11638139  0.87433773  0.55664175    -0.11220
C946        C  0.11940835  0.90280054  0.55964096    -0.12780
C947        C  0.00101893  0.75077328  0.37452263    -0.11220
C948        C  0.98098431  0.75099310  0.35412176    -0.12780
C949        C  0.24873634  0.99271043  0.55695050    -0.11220
C950        C  0.22030056  0.99598829  0.55991881    -0.12780
C951        C  0.36922301  0.85873626  0.35229454    -0.11220
C952        C  0.36983950  0.87827747  0.37315623    -0.12780
C953        C  0.72038783  0.93950694  0.49549792    -0.11220
C954        C  0.74881748  0.94261132  0.49226919    -0.12780
C955        C  0.52601923  0.93946038  0.50376539    -0.11220
C956        C  0.49756623  0.94251784  0.50686454    -0.12780
C957        C  0.37488364  0.14498438  0.64318482    -0.11220
C958        C  0.37458433  0.12446876  0.62327627    -0.12780
C959        C  0.61908206  0.93939476  0.40258286    -0.11220
C960        C  0.61593717  0.94235685  0.37413185    -0.12780
C961        C  0.50033000  0.12452356  0.25097114    -0.11220
C962        C  0.48040712  0.14502635  0.25124278    -0.12780
C963        C  0.63075964  0.94240808  0.62535941    -0.11220
C964        C  0.62747507  0.93944299  0.59691903    -0.12780
C965        C  0.74584745  0.12550415  0.74734030    -0.11220
C966        C  0.76549370  0.14626999  0.74685984    -0.12780
C967        C  0.24873333  0.00674280  0.44350355    -0.11220
C968        C  0.22027754  0.00363515  0.44056619    -0.12780
C969        C  0.12738932  0.90262395  0.44039798    -0.11220
C970        C  0.13081805  0.87420413  0.44333079    -0.12780
C971        C  0.24642379  0.75120965  0.62600124    -0.11220
C972        C  0.26623000  0.75144935  0.64662285    -0.12780
C973        C  0.11650792  0.12544162  0.44364919    -0.11220
C974        C  0.11944546  0.09696081  0.44072582    -0.12780
C975        C  0.97643068  0.25299585  0.64125511    -0.11220
C976        C  0.99716049  0.25258628  0.62157584    -0.12780
C977        C  0.99745095  0.99293936  0.44351667    -0.11220
C978        C  0.02591943  0.99598479  0.44058734    -0.12780
C979        C  0.86870546  0.85029633  0.63954866    -0.11220
C980        C  0.86950023  0.87126484  0.62012004    -0.12780
C981        C  0.68077633  0.00674415  0.12595571    -0.11220
C982        C  0.68381752  0.00364127  0.09750738    -0.12780
C983        C  0.68375057  0.99571689  0.90313961    -0.11220
C984        C  0.68071987  0.99251069  0.87469539    -0.12780
C985        C  0.47776884  0.85636486  0.75294027    -0.11220
C986        C  0.49840036  0.87614836  0.75256346    -0.12780
C987        C  0.68091838  0.12535169  0.99327761    -0.11220
C988        C  0.68385247  0.09689401  0.99642053    -0.12780
C989        C  0.50184436  0.25073179  0.87408421    -0.11220
C990        C  0.48183053  0.25097040  0.85367660    -0.12780
C991        C  0.68072329  0.87409392  0.00745736    -0.11220
C992        C  0.68376420  0.90253700  0.00430883    -0.12780
C993        C  0.47602476  0.75352034  0.14120251    -0.11220
C994        C  0.49689015  0.75288953  0.12166683    -0.12780
C995        C  0.56456592  0.00351721  0.90252060    -0.11220
C996        C  0.56741247  0.00652572  0.87404864    -0.12780
C997        C  0.56462006  0.99618196  0.09686164    -0.11220
C998        C  0.56746083  0.99296171  0.12531766    -0.12780
C999        C  0.74859193  0.87618898  0.24881503    -0.11220
C1000       C  0.76909013  0.85625502  0.24857329    -0.12780
C1001       C  0.56461000  0.90276896  0.99599486    -0.11220
C1002       C  0.56750646  0.87430535  0.99290003    -0.12780
C1003       C  0.74435395  0.74528794  0.87238199    -0.11220
C1004       C  0.76369621  0.74441966  0.85133874    -0.12780
C1005       C  0.56470687  0.09713184  0.00325744    -0.11220
C1006       C  0.56765008  0.12559727  0.00629416    -0.12780
C1007       C  0.76366421  0.25461236  0.14856531    -0.11220
C1008       C  0.74425747  0.25385394  0.12758307    -0.12780
C1009       C  0.61966722  0.40237264  0.05976360    -0.11220
C1010       C  0.61650999  0.37392564  0.05679885    -0.12780
C1011       C  0.63021767  0.62518232  0.05652227    -0.11220
C1012       C  0.62705794  0.59673441  0.05952866    -0.12780
C1013       C  0.49776491  0.50622418  0.05715254    -0.11220
C1014       C  0.52623194  0.50313020  0.05999898    -0.12780
C1015       C  0.37132685  0.64540744  0.85826315    -0.11220
C1016       C  0.37172635  0.62487454  0.87813390    -0.12780
C1017       C  0.72058332  0.49593291  0.05931255    -0.11220
C1018       C  0.74903099  0.49285596  0.05625067    -0.12780
C1019       C  0.87092042  0.37808174  0.87311790    -0.11220
C1020       C  0.87037758  0.35829936  0.85248469    -0.12780
C1021       C  0.22052095  0.43976459  0.99621722    -0.11220
C1022       C  0.24899159  0.44270870  0.99324650    -0.12780
C1023       C  0.12992160  0.44300751  0.12508401    -0.11220
C1024       C  0.12675532  0.43995400  0.09663897    -0.12780
C1025       C  0.24483208  0.62650380  0.24629063    -0.11220
C1026       C  0.26435269  0.64737583  0.24569471    -0.12780
C1027       C  0.11725918  0.44288627  0.87373606    -0.11220
C1028       C  0.12015859  0.43988874  0.90221359    -0.12780
C1029       C  0.99634815  0.62009372  0.74609017    -0.11220
C1030       C  0.97530674  0.63944281  0.74532600    -0.12780
C1031       C  0.99768031  0.44299492  0.00592113    -0.11220
C1032       C  0.02613141  0.43999110  0.00280382    -0.12780
C1033       C  0.87516710  0.64501170  0.14292057    -0.11220
C1034       C  0.87490768  0.62459871  0.12290629    -0.12780
C1035       C  0.99777467  0.55638356  0.99267399    -0.11220
C1036       C  0.02622445  0.55924198  0.99587824    -0.12780
C1037       C  0.11941324  0.55923206  0.09700991    -0.11220
C1038       C  0.11626130  0.55638986  0.12546617    -0.12780
C1039       C  0.99646090  0.37884721  0.25338109    -0.11220
C1040       C  0.97549389  0.35943261  0.25416309    -0.12780
C1041       C  0.13051074  0.55622244  0.87425978    -0.11220
C1042       C  0.12730876  0.55909132  0.90271135    -0.12780
C1043       C  0.27023317  0.35711356  0.74889623    -0.11220
C1044       C  0.24986998  0.37718100  0.74913100    -0.12780
C1045       C  0.22050790  0.55904771  0.00388555    -0.11220
C1046       C  0.24894877  0.55612046  0.00711163    -0.12780
C1047       C  0.37520964  0.35670469  0.14571605    -0.11220
C1048       C  0.37491839  0.37663338  0.12523680    -0.12780
C1049       C  0.52622639  0.49633593  0.94059651    -0.11220
C1050       C  0.49779077  0.49313497  0.94359693    -0.12780
C1051       C  0.61932175  0.59744106  0.94023372    -0.11220
C1052       C  0.61614553  0.62589077  0.94312332    -0.12780
C1053       C  0.72052036  0.50427597  0.94007877    -0.11220
C1054       C  0.74897893  0.50741462  0.94292764    -0.12780
C1055       C  0.63078763  0.37470156  0.94338351    -0.11220
C1056       C  0.62748701  0.40313775  0.94043056    -0.12780
C1057       C  0.18380247  0.40284023  0.50356052    -0.11220
C1058       C  0.18068859  0.37440600  0.50676918    -0.12780
C1059       C  0.18412856  0.59723892  0.49574495    -0.11220
C1060       C  0.18111088  0.62570670  0.49275113    -0.12780
C1061       C  0.18388216  0.49598770  0.40234887    -0.11220
C1062       C  0.18079741  0.49278413  0.37391197    -0.12780
C1063       C  0.18410492  0.50412520  0.59671505    -0.11220
C1064       C  0.18110562  0.50734893  0.62515806    -0.12780
C1065       C  0.49743358  0.05579049  0.49315169    -0.11220
C1066       C  0.52588979  0.05861624  0.49632054    -0.12780
C1067       C  0.74862816  0.05591348  0.50767259    -0.11220
C1068       C  0.72018055  0.05876968  0.50441739    -0.12780
C1069       C  0.62695284  0.05860772  0.40313152    -0.11220
C1070       C  0.63009735  0.05565433  0.37467733    -0.12780
C1071       C  0.61613170  0.05563489  0.62593725    -0.11220
C1072       C  0.61916042  0.05860944  0.59747667    -0.12780
C1073       C  0.06496730  0.59696159  0.50361509    -0.11220
C1074       C  0.06782899  0.62542063  0.50672616    -0.12780
C1075       C  0.06443621  0.40268321  0.49583839    -0.11220
C1076       C  0.06721869  0.37422838  0.49263097    -0.12780
C1077       C  0.06464002  0.50365425  0.40264142    -0.11220
C1078       C  0.06745545  0.50677016  0.37417786    -0.12780
C1079       C  0.06778521  0.49257164  0.62536682    -0.11220
C1080       C  0.06484168  0.49580759  0.59692983    -0.12780
loop_ 
_geom_bond_atom_site_label_1 
_geom_bond_atom_site_label_2 
_geom_bond_distance 
_geom_bond_site_symmetry_2 
_ccdc_geom_bond_type 
O1           Cu9   2.021       .  S
O1           C11   1.277       .  A
O2           Cu9   2.021       .  S
O2           C12   1.277       .  A
O3           Cu9   2.021       .  S
O3           C13   1.277       .  A
O4           Cu9   2.021       .  S
O4           C14   1.277       .  A
O5          Cu10   2.010       .  S
O5           C14   1.276       .  A
O6          Cu10   2.010       .  S
O6           C13   1.276       .  A
O7          Cu10   2.010       .  S
O7           C12   1.276       .  A
O8          Cu10   2.010       .  S
O8           C11   1.276       .  A
Cu9         Cu10   2.376       .  S
C11        C1080   1.440       .  S
C12        C1077   1.440       .  S
C13        C1075   1.440       .  S
C14        C1073   1.440       .  S
O15         Cu23   2.010       .  S
O15          C25   1.276       .  A
O16         Cu23   2.010       .  S
O16          C26   1.276       .  A
O17         Cu23   2.010       .  S
O17          C27   1.276       .  A
O18         Cu23   2.010       .  S
O18          C28   1.276       .  A
O19         Cu24   2.021       .  S
O19          C28   1.277       .  A
O20         Cu24   2.021       .  S
O20          C27   1.277       .  A
O21         Cu24   2.022       .  S
O21          C26   1.277       .  A
O22         Cu24   2.022       .  S
O22          C25   1.277       .  A
Cu23        Cu24   2.375       .  S
C25        C1072   1.440       .  S
C26        C1069   1.440       .  S
C27        C1068   1.440       .  S
C28        C1066   1.440       .  S
O29         Cu37   2.010       .  S
O29          C39   1.276       .  A
O30         Cu37   2.010       .  S
O30          C40   1.276       .  A
O31         Cu37   2.010       .  S
O31          C41   1.276       .  A
O32         Cu37   2.010       .  S
O32          C42   1.276       .  A
O33         Cu38   2.023       .  S
O33          C42   1.278       .  A
O34         Cu38   2.023       .  S
O34          C41   1.277       .  A
O35         Cu38   2.023       .  S
O35          C40   1.278       .  A
O36         Cu38   2.023       .  S
O36          C39   1.278       .  A
Cu37        Cu38   2.375       .  S
C39        C1059   1.441       .  S
C40        C1057   1.441       .  S
C41        C1063   1.441       .  S
C42        C1061   1.441       .  S
O43         Cu51   2.022       .  S
O43          C53   1.277       .  A
O44         Cu51   2.022       .  S
O44          C54   1.277       .  A
O45         Cu51   2.022       .  S
O45          C55   1.277       .  A
O46         Cu51   2.022       .  S
O46          C56   1.277       .  A
O47         Cu52   2.010       .  S
O47          C56   1.276       .  A
O48         Cu52   2.010       .  S
O48          C55   1.276       .  A
O49         Cu52   2.010       .  S
O49          C54   1.276       .  A
O50         Cu52   2.010       .  S
O50          C53   1.276       .  A
Cu51        Cu52   2.375       .  S
C53        C1049   1.440       .  S
C54        C1053   1.440       .  S
C55        C1056   1.440       .  S
C56        C1051   1.440       .  S
N57          N58   1.327       .  A
N57          C61   1.351       .  A
N57         Cu65   2.117       .  S
N58          C59   1.342       .  A
N58         Cu64   2.073   1_556  S
C59          C60   1.375       .  A
C59          H62   1.082       .  S
C60        C1050   1.441       .  S
C60          C61   1.385       .  A
C61          H63   1.082       .  S
Cu64         N67   2.073       .  S
Cu65         N75   2.117   1_556  S
Cu66         N68   2.072       .  S
Cu66         N74   2.073       .  S
N67          N68   1.326       .  A
N67          C71   1.343       .  A
N68          C69   1.343       .  A
C69          C70   1.376       .  A
C69          H72   1.082       .  S
C70        C1048   1.428       .  S
C70          C71   1.376       .  A
C71          H73   1.083       .  S
N74          N75   1.327       .  A
N74          C78   1.342       .  A
N75          C76   1.351   1_554  A
C76          C77   1.385   1_556  A
C76          H79   1.081       .  S
C77        C1046   1.441       .  S
C77          C78   1.375       .  A
C78          H80   1.080       .  S
N81          N82   1.327       .  A
N81          C85   1.351       .  A
N81         Cu89   2.118       .  S
N82          C83   1.342       .  A
N82         Cu88   2.073       .  S
C83          C84   1.375       .  A
C83          H86   1.082       .  S
C84        C1079   1.441       .  S
C84          C85   1.385       .  A
C85          H87   1.082       .  S
Cu88         N91   2.073       .  S
Cu89         N99   2.117       .  S
Cu90         N92   2.073       .  S
Cu90         N98   2.074       .  S
N91          N92   1.326       .  A
N91          C95   1.343       .  A
N92          C93   1.344       .  A
C93          C94   1.376       .  A
C93          H96   1.082       .  S
C94        C1044   1.429       .  S
C94          C95   1.376       .  A
C95          H97   1.082       .  S
N98          N99   1.327       .  A
N98         C102   1.342       .  A
N99         C100   1.350       .  A
C100        C101   1.385       .  A
C100        H103   1.083       .  S
C101       C1041   1.441       .  S
C101        C102   1.375       .  A
C102        H104   1.082       .  S
N105        N106   1.327       .  A
N105        C109   1.351       .  A
N105       Cu113   2.117       .  S
N106        C107   1.343       .  A
N106       Cu112   2.075       .  S
C107        C108   1.376       .  A
C107        H110   1.080       .  S
C108       C1062   1.442       .  S
C108        C109   1.385       .  A
C109        H111   1.082       .  S
Cu112       N115   2.075       .  S
Cu113       N123   2.119       .  S
Cu114       N116   2.072       .  S
Cu114       N122   2.073       .  S
N115        N116   1.326       .  A
N115        C119   1.344       .  A
N116        C117   1.343       .  A
C117        C118   1.376       .  A
C117        H120   1.083       .  S
C118       C1039   1.429   1_455  S
C118        C119   1.376       .  A
C119        H121   1.082       .  S
N122        N123   1.327       .  A
N122        C126   1.342       .  A
N123        C124   1.351       .  A
C124        C125   1.385       .  A
C124        H127   1.082       .  S
C125       C1038   1.441       .  S
C125        C126   1.375       .  A
C126        H128   1.082       .  S
O129       Cu137   2.022   1_554  S
O129        C139   1.277       .  A
O130       Cu137   2.022       .  S
O130        C140   1.277       .  A
O131       Cu137   2.021   1_554  S
O131        C141   1.277       .  A
O132       Cu137   2.022       .  S
O132        C142   1.277       .  A
O133       Cu138   2.010       .  S
O133        C142   1.276       .  A
O134       Cu138   2.010   1_554  S
O134        C141   1.276       .  A
O135       Cu138   2.010       .  S
O135        C140   1.276       .  A
O136       Cu138   2.010   1_554  S
O136        C139   1.276       .  A
Cu137      Cu138   2.375       .  S
C139       C1045   1.440       .  S
C140       C1036   1.440       .  S
C141       C1037   1.440       .  S
C142       C1042   1.440       .  S
N143        N144   1.327       .  A
N143        C147   1.351   1_554  A
N143       Cu151   2.118   1_554  S
N144        C145   1.342       .  A
N144       Cu150   2.074       .  S
C145        C146   1.375       .  A
C145        H148   1.082       .  S
C146       C1031   1.442       .  S
C146        C147   1.385   1_554  A
C147        H149   1.083       .  S
Cu150       N153   2.074       .  S
Cu151       N161   2.118       .  S
Cu152       N154   2.072       .  S
Cu152       N160   2.073   1_554  S
N153        N154   1.326       .  A
N153        C157   1.343       .  A
N154        C155   1.343       .  A
C155        C156   1.376       .  A
C155        H158   1.082       .  S
C156       C1034   1.429       .  S
C156        C157   1.376       .  A
C157        H159   1.082       .  S
N160        N161   1.327       .  A
N160        C164   1.342       .  A
N161        C162   1.351       .  A
C162        C163   1.385       .  A
C162        H165   1.082       .  S
C163       C1054   1.441       .  S
C163        C164   1.375       .  A
C164        H166   1.082       .  S
N167        N168   1.327       .  A
N167        C171   1.351       .  A
N167       Cu175   2.119       .  S
N168        C169   1.342       .  A
N168       Cu174   2.075       .  S
C169        C170   1.375       .  A
C169        H172   1.082       .  S
C170       C1064   1.442       .  S
C170        C171   1.385       .  A
C171        H173   1.083       .  S
Cu174       N177   2.074       .  S
Cu175       N185   2.119       .  S
Cu176       N178   2.073       .  S
Cu176       N184   2.073       .  S
N177        N178   1.326       .  A
N177        C181   1.344       .  A
N178        C179   1.344       .  A
C179        C180   1.376       .  A
C179        H182   1.080       .  S
C180       C1029   1.429   1_455  S
C180        C181   1.376       .  A
C181        H183   1.080       .  S
N184        N185   1.327       .  A
N184        C188   1.342       .  A
N185        C186   1.351       .  A
C186        C187   1.385       .  A
C186        H189   1.083       .  S
C187       C1027   1.442       .  S
C187        C188   1.375       .  A
C188        H190   1.082       .  S
N191        N192   1.327       .  A
N191        C195   1.351       .  A
N191       Cu199   2.118       .  S
N192        C193   1.343       .  A
N192       Cu198   2.075       .  S
C193        C194   1.375       .  A
C193        H196   1.080       .  S
C194       C1023   1.442       .  S
C194        C195   1.385       .  A
C195        H197   1.082       .  S
Cu198       N201   2.074       .  S
Cu199       N209   2.119       .  S
Cu200       N202   2.072       .  S
Cu200       N208   2.072       .  S
N201        N202   1.326       .  A
N201        C205   1.344       .  A
N202        C203   1.343       .  A
C203        C204   1.376       .  A
C203        H206   1.082       .  S
C204       C1025   1.429       .  S
C204        C205   1.376       .  A
C205        H207   1.082       .  S
N208        N209   1.327       .  A
N208        C212   1.342       .  A
N209        C210   1.351       .  A
C210        C211   1.385       .  A
C210        H213   1.082       .  S
C211       C1078   1.441       .  S
C211        C212   1.375       .  A
C212        H214   1.082       .  S
O215       Cu223   2.010       .  S
O215        C225   1.276       .  A
O216       Cu223   2.010   1_554  S
O216        C226   1.276       .  A
O217       Cu223   2.010       .  S
O217        C227   1.276       .  A
O218       Cu223   2.010   1_554  S
O218        C228   1.276       .  A
O219       Cu224   2.022   1_554  S
O219        C228   1.277       .  A
O220       Cu224   2.022       .  S
O220        C227   1.277       .  A
O221       Cu224   2.023   1_554  S
O221        C226   1.278       .  A
O222       Cu224   2.023       .  S
O222        C225   1.278       .  A
Cu223      Cu224   2.375       .  S
C225       C1028   1.441       .  S
C226       C1024   1.441       .  S
C227       C1021   1.440       .  S
C228       C1032   1.440       .  S
N229        N230   1.327       .  A
N229        C233   1.351       .  A
N229       Cu237   2.118       .  S
N230        C231   1.342       .  A
N230       Cu236   2.073   1_554  S
C231        C232   1.375       .  A
C231        H234   1.082       .  S
C232       C1018   1.442       .  S
C232        C233   1.385       .  A
C233        H235   1.083       .  S
Cu236       N239   2.073       .  S
Cu237       N247   2.118   1_554  S
Cu238       N240   2.073       .  S
Cu238       N246   2.073       .  S
N239        N240   1.326       .  A
N239        C243   1.344       .  A
N240        C241   1.344       .  A
C241        C242   1.376       .  A
C241        H244   1.080       .  S
C242       C1019   1.429       .  S
C242        C243   1.376       .  A
C243        H245   1.080       .  S
N246        N247   1.327       .  A
N246        C250   1.342       .  A
N247        C248   1.351   1_556  A
C248        C249   1.385   1_554  A
C248        H251   1.083       .  S
C249       C1035   1.441       .  S
C249        C250   1.375       .  A
C250        H252   1.082       .  S
N253        N254   1.327       .  A
N253        C257   1.351   1_556  A
N253       Cu261   2.118   1_556  S
N254        C255   1.342       .  A
N254       Cu260   2.073       .  S
C255        C256   1.375       .  A
C255        H258   1.082       .  S
C256       C1022   1.442       .  S
C256        C257   1.385   1_556  A
C257        H259   1.083       .  S
Cu260       N263   2.073       .  S
Cu261       N271   2.118       .  S
Cu262       N264   2.072       .  S
Cu262       N270   2.073   1_556  S
N263        N264   1.326       .  A
N263        C267   1.343       .  A
N264        C265   1.343       .  A
C265        C266   1.376       .  A
C265        H268   1.082       .  S
C266       C1016   1.428       .  S
C266        C267   1.376       .  A
C267        H269   1.082       .  S
N270        N271   1.327       .  A
N270        C274   1.342       .  A
N271        C272   1.351       .  A
C272        C273   1.385       .  A
C272        H275   1.081       .  S
C273       C1013   1.442       .  S
C273        C274   1.375       .  A
C274        H276   1.080       .  S
O277       Cu285   2.022       .  S
O277        C287   1.277       .  A
O278       Cu285   2.022       .  S
O278        C288   1.277       .  A
O279       Cu285   2.022       .  S
O279        C289   1.277       .  A
O280       Cu285   2.022       .  S
O280        C290   1.277       .  A
O281       Cu286   2.010       .  S
O281        C290   1.276       .  A
O282       Cu286   2.010       .  S
O282        C289   1.276       .  A
O283       Cu286   2.010       .  S
O283        C288   1.276       .  A
O284       Cu286   2.010       .  S
O284        C287   1.276       .  A
Cu285      Cu286   2.375       .  S
C287       C1017   1.440       .  S
C288       C1014   1.440       .  S
C289       C1009   1.440       .  S
C290       C1012   1.441       .  S
N291        N292   1.327       .  A
N291        C295   1.351       .  A
N291       Cu299   2.118       .  S
N292        C293   1.342       .  A
N292       Cu298   2.074   1_556  S
C293        C294   1.375       .  A
C293        H296   1.082       .  S
C294       C1055   1.442       .  S
C294        C295   1.385       .  A
C295        H297   1.082       .  S
Cu298       N301   2.074       .  S
Cu299       N309   2.118   1_556  S
Cu300       N302   2.073       .  S
Cu300       N308   2.073       .  S
N301        N302   1.326       .  A
N301        C305   1.344       .  A
N302        C303   1.343       .  A
C303        C304   1.376       .  A
C303        H306   1.081       .  S
C304       C1008   1.429       .  S
C304        C305   1.376       .  A
C305        H307   1.080       .  S
N308        N309   1.327       .  A
N308        C312   1.342       .  A
N309        C310   1.351   1_554  A
C310        C311   1.385   1_556  A
C310        H313   1.083       .  S
C311       C1006   1.442       .  S
C311        C312   1.375       .  A
C312        H314   1.082       .  S
N315        N316   1.327       .  A
N315        C319   1.351       .  A
N315       Cu323   2.118       .  S
N316        C317   1.342       .  A
N316       Cu322   2.075   1_554  S
C317        C318   1.375       .  A
C317        H320   1.082       .  S
C318       C1011   1.442       .  S
C318        C319   1.385       .  A
C319        H321   1.083       .  S
Cu322       N325   2.074       .  S
Cu323       N333   2.119   1_554  S
Cu324       N326   2.072       .  S
Cu324       N332   2.073       .  S
N325        N326   1.326       .  A
N325        C329   1.344       .  A
N326        C327   1.343       .  A
C327        C328   1.376       .  A
C327        H330   1.082       .  S
C328       C1003   1.429       .  S
C328        C329   1.376       .  A
C329        H331   1.082       .  S
N332        N333   1.327       .  A
N332        C336   1.343       .  A
N333        C334   1.351   1_556  A
C334        C335   1.385   1_554  A
C334        H337   1.081       .  S
C335       C1002   1.442       .  S
C335        C336   1.375       .  A
C336        H338   1.080       .  S
N339        N340   1.327       .  A
N339        C343   1.351   1_565  A
N339       Cu347   2.119   1_565  S
N340        C341   1.342       .  A
N340       Cu346   2.074       .  S
C341        C342   1.375       .  A
C341        H344   1.082       .  S
C342        C998   1.442       .  S
C342        C343   1.385   1_565  A
C343        H345   1.083       .  S
Cu346       N349   2.073       .  S
Cu347       N357   2.119       .  S
Cu348       N350   2.073       .  S
Cu348       N356   2.073   1_565  S
N349        N350   1.326       .  A
N349        C353   1.344       .  A
N350        C351   1.343       .  A
C351        C352   1.376       .  A
C351        H354   1.082       .  S
C352        C999   1.429       .  S
C352        C353   1.376       .  A
C353        H355   1.082       .  S
N356        N357   1.327       .  A
N356        C360   1.342       .  A
N357        C358   1.351       .  A
C358        C359   1.385       .  A
C358        H361   1.083       .  S
C359       C1070   1.442       .  S
C359        C360   1.375       .  A
C360        H362   1.082       .  S
O363       Cu371   2.022   1_544  S
O363        C373   1.277       .  A
O364       Cu371   2.022       .  S
O364        C374   1.277       .  A
O365       Cu371   2.022   1_554  S
O365        C375   1.277       .  A
O366       Cu371   2.021   1_545  S
O366        C376   1.277       .  A
O367       Cu372   2.010   1_545  S
O367        C376   1.276       .  A
O368       Cu372   2.011   1_554  S
O368        C375   1.276       .  A
O369       Cu372   2.010       .  S
O369        C374   1.276       .  A
O370       Cu372   2.010   1_544  S
O370        C373   1.276       .  A
Cu371      Cu372   2.375       .  S
C373       C1005   1.440       .  S
C374       C1001   1.440       .  S
C375        C997   1.440       .  S
C376        C995   1.440       .  S
N377        N378   1.327       .  A
N377        C381   1.350   1_554  A
N377       Cu385   2.117   1_554  S
N378        C379   1.342       .  A
N378       Cu384   2.075       .  S
C379        C380   1.375       .  A
C379        H382   1.082       .  S
C380        C991   1.442       .  S
C380        C381   1.385   1_554  A
C381        H383   1.083       .  S
Cu384       N387   2.074       .  S
Cu385       N395   2.119       .  S
Cu386       N388   2.072       .  S
Cu386       N394   2.073   1_554  S
N387        N388   1.326       .  A
N387        C391   1.344       .  A
N388        C389   1.343       .  A
C389        C390   1.376       .  A
C389        H392   1.082       .  S
C390        C994   1.429       .  S
C390        C391   1.376       .  A
C391        H393   1.082       .  S
N394        N395   1.327       .  A
N394        C398   1.343       .  A
N395        C396   1.351       .  A
C396        C397   1.385       .  A
C396        H399   1.081       .  S
C397       C1052   1.441       .  S
C397        C398   1.375       .  A
C398        H400   1.080       .  S
N401        N402   1.327       .  A
N401        C405   1.351       .  A
N401       Cu409   2.119       .  S
N402        C403   1.342       .  A
N402       Cu408   2.073   1_554  S
C403        C404   1.375       .  A
C403        H406   1.082       .  S
C404       C1010   1.441       .  S
C404        C405   1.385       .  A
C405        H407   1.082       .  S
Cu408       N411   2.073       .  S
Cu409       N419   2.118   1_554  S
Cu410       N412   2.073       .  S
Cu410       N418   2.073       .  S
N411        N412   1.326       .  A
N411        C415   1.343       .  A
N412        C413   1.343       .  A
C413        C414   1.376       .  A
C413        H416   1.082       .  S
C414        C989   1.428       .  S
C414        C415   1.376       .  A
C415        H417   1.082       .  S
N418        N419   1.327       .  A
N418        C422   1.342       .  A
N419        C420   1.351   1_556  A
C420        C421   1.385   1_554  A
C420        H423   1.083       .  S
C421        C987   1.442       .  S
C421        C422   1.375       .  A
C422        H424   1.082       .  S
N425        N426   1.327       .  A
N425        C429   1.351   1_565  A
N425       Cu433   2.119   1_565  S
N426        C427   1.343       .  A
N426       Cu432   2.074       .  S
C427        C428   1.375       .  A
C427        H430   1.080       .  S
C428        C984   1.442       .  S
C428        C429   1.385   1_565  A
C429        H431   1.082       .  S
Cu432       N435   2.074       .  S
Cu433       N443   2.120       .  S
Cu434       N436   2.072       .  S
Cu434       N442   2.073   1_565  S
N435        N436   1.326       .  A
N435        C439   1.344       .  A
N436        C437   1.343       .  A
C437        C438   1.376       .  A
C437        H440   1.083       .  S
C438        C986   1.429       .  S
C438        C439   1.376       .  A
C439        H441   1.082       .  S
N442        N443   1.327       .  A
N442        C446   1.342       .  A
N443        C444   1.351       .  A
C444        C445   1.385       .  A
C444        H447   1.082       .  S
C445       C1071   1.442       .  S
C445        C446   1.375       .  A
C446        H448   1.082       .  S
O449       Cu457   2.023       .  S
O449        C459   1.277       .  A
O450       Cu457   2.023   1_546  S
O450        C460   1.277       .  A
O451       Cu457   2.023   1_545  S
O451        C461   1.277       .  A
O452       Cu457   2.023   1_556  S
O452        C462   1.278       .  A
O453       Cu458   2.010   1_556  S
O453        C462   1.276       .  A
O454       Cu458   2.010   1_545  S
O454        C461   1.276       .  A
O455       Cu458   2.010   1_546  S
O455        C460   1.276       .  A
O456       Cu458   2.010       .  S
O456        C459   1.276       .  A
Cu457      Cu458   2.375       .  S
C459        C992   1.440       .  S
C460        C988   1.440       .  S
C461        C982   1.440       .  S
C462        C983   1.441       .  S
N463        N464   1.327       .  A
N463        C467   1.351       .  A
N463       Cu471   2.119       .  S
N464        C465   1.343       .  A
N464       Cu470   2.074   1_545  S
C465        C466   1.375       .  A
C465        H468   1.080       .  S
C466       C1067   1.441       .  S
C466        C467   1.385       .  A
C467        H469   1.081       .  S
Cu470       N473   2.073       .  S
Cu471       N481   2.119   1_545  S
Cu472       N474   2.073       .  S
Cu472       N480   2.074       .  S
N473        N474   1.325       .  A
N473        C477   1.344       .  A
N474        C475   1.344       .  A
C475        C476   1.376       .  A
C475        H478   1.083       .  S
C476        C980   1.430       .  S
C476        C477   1.376       .  A
C477        H479   1.082       .  S
N480        N481   1.327       .  A
N480        C484   1.342       .  A
N481        C482   1.351   1_565  A
C482        C483   1.385   1_545  A
C482        H485   1.083       .  S
C483        C977   1.442       .  S
C483        C484   1.375       .  A
C484        H486   1.082       .  S
N487        N488   1.327       .  A
N487        C491   1.351       .  A
N487       Cu495   2.119       .  S
N488        C489   1.342       .  A
N488       Cu494   2.074       .  S
C489        C490   1.375       .  A
C489        H492   1.082       .  S
C490       C1058   1.442       .  S
C490        C491   1.385       .  A
C491        H493   1.082       .  S
Cu494       N497   2.074       .  S
Cu495       N505   2.119       .  S
Cu496       N498   2.072       .  S
Cu496       N504   2.073       .  S
N497        N498   1.326       .  A
N497        C501   1.344       .  A
N498        C499   1.343       .  A
C499        C500   1.376       .  A
C499        H502   1.082       .  S
C500        C976   1.429   1_455  S
C500        C501   1.376       .  A
C501        H503   1.082       .  S
N504        N505   1.327       .  A
N504        C508   1.342       .  A
N505        C506   1.351       .  A
C506        C507   1.385       .  A
C506        H509   1.082       .  S
C507        C973   1.442       .  S
C507        C508   1.375       .  A
C508        H510   1.080       .  S
N511        N512   1.327       .  A
N511        C515   1.350       .  A
N511       Cu519   2.117       .  S
N512        C513   1.342       .  A
N512       Cu518   2.073       .  S
C513        C514   1.375       .  A
C513        H516   1.082       .  S
C514       C1074   1.441       .  S
C514        C515   1.385       .  A
C515        H517   1.083       .  S
Cu518       N521   2.072       .  S
Cu519       N529   2.118       .  S
Cu520       N522   2.074       .  S
Cu520       N528   2.075       .  S
N521        N522   1.325       .  A
N521        C525   1.344       .  A
N522        C523   1.344       .  A
C523        C524   1.376       .  A
C523        H526   1.080       .  S
C524        C971   1.429       .  S
C524        C525   1.376       .  A
C525        H527   1.080       .  S
N528        N529   1.327       .  A
N528        C532   1.343       .  A
N529        C530   1.350       .  A
C530        C531   1.385       .  A
C530        H533   1.083       .  S
C531        C970   1.442       .  S
C531        C532   1.375       .  A
C532        H534   1.082       .  S
O535       Cu543   2.010       .  S
O535        C545   1.276       .  A
O536       Cu543   2.010   1_545  S
O536        C546   1.276       .  A
O537       Cu543   2.010   1_545  S
O537        C547   1.276       .  A
O538       Cu543   2.010       .  S
O538        C548   1.276       .  A
O539       Cu544   2.022       .  S
O539        C548   1.277       .  A
O540       Cu544   2.022   1_545  S
O540        C547   1.277       .  A
O541       Cu544   2.022   1_545  S
O541        C546   1.277       .  A
O542       Cu544   2.023       .  S
O542        C545   1.277       .  A
Cu543      Cu544   2.375       .  S
C545        C978   1.441       .  S
C546        C968   1.440       .  S
C547        C974   1.440       .  S
C548        C969   1.440       .  S
N549        N550   1.327       .  A
N549        C553   1.351       .  A
N549       Cu557   2.118       .  S
N550        C551   1.343       .  A
N550       Cu556   2.075   1_565  S
C551        C552   1.375       .  A
C551        H554   1.080       .  S
C552        C963   1.442       .  S
C552        C553   1.385       .  A
C553        H555   1.082       .  S
Cu556       N559   2.074       .  S
Cu557       N567   2.119   1_565  S
Cu558       N560   2.072       .  S
Cu558       N566   2.073       .  S
N559        N560   1.326       .  A
N559        C563   1.344       .  A
N560        C561   1.343       .  A
C561        C562   1.376       .  A
C561        H564   1.083       .  S
C562        C965   1.429       .  S
C562        C563   1.376       .  A
C563        H565   1.082       .  S
N566        N567   1.327       .  A
N566        C570   1.342       .  A
N567        C568   1.351   1_545  A
C568        C569   1.385   1_565  A
C568        H571   1.082       .  S
C569        C996   1.441       .  S
C569        C570   1.375       .  A
C570        H572   1.082       .  S
N573        N574   1.327       .  A
N573        C577   1.351       .  A
N573       Cu581   2.118       .  S
N574        C575   1.342       .  A
N574       Cu580   2.074   1_565  S
C575        C576   1.375       .  A
C575        H578   1.082       .  S
C576        C960   1.442       .  S
C576        C577   1.385       .  A
C577        H579   1.083       .  S
Cu580       N583   2.073       .  S
Cu581       N591   2.119   1_565  S
Cu582       N584   2.073       .  S
Cu582       N590   2.073       .  S
N583        N584   1.326       .  A
N583        C587   1.344       .  A
N584        C585   1.344       .  A
C585        C586   1.376       .  A
C585        H588   1.080       .  S
C586        C961   1.429       .  S
C586        C587   1.376       .  A
C587        H589   1.080       .  S
N590        N591   1.327       .  A
N590        C594   1.342       .  A
N591        C592   1.351   1_545  A
C592        C593   1.385   1_565  A
C592        H595   1.083       .  S
C593        C981   1.442       .  S
C593        C594   1.375       .  A
C594        H596   1.082       .  S
N597        N598   1.327       .  A
N597        C601   1.351       .  A
N597       Cu605   2.119       .  S
N598        C599   1.342       .  A
N598       Cu604   2.074   1_565  S
C599        C600   1.375       .  A
C599        H602   1.082       .  S
C600        C956   1.442       .  S
C600        C601   1.385       .  A
C601        H603   1.083       .  S
Cu604       N607   2.074       .  S
Cu605       N615   2.120   1_565  S
Cu606       N608   2.072       .  S
Cu606       N614   2.073       .  S
N607        N608   1.326       .  A
N607        C611   1.344       .  A
N608        C609   1.343       .  A
C609        C610   1.376       .  A
C609        H612   1.082       .  S
C610        C958   1.429       .  S
C610        C611   1.376       .  A
C611        H613   1.082       .  S
N614        N615   1.327       .  A
N614        C618   1.342       .  A
N615        C616   1.351   1_545  A
C616        C617   1.385   1_565  A
C616        H619   1.082       .  S
C617        C967   1.442       .  S
C617        C618   1.375       .  A
C618        H620   1.082       .  S
O621       Cu629   2.022       .  S
O621        C631   1.277       .  A
O622       Cu629   2.022       .  S
O622        C632   1.277       .  A
O623       Cu629   2.023       .  S
O623        C633   1.278       .  A
O624       Cu629   2.023       .  S
O624        C634   1.278       .  A
O625       Cu630   2.010       .  S
O625        C634   1.276       .  A
O626       Cu630   2.010       .  S
O626        C633   1.276       .  A
O627       Cu630   2.010       .  S
O627        C632   1.276       .  A
O628       Cu630   2.010       .  S
O628        C631   1.276       .  A
Cu629      Cu630   2.375       .  S
C631        C964   1.441       .  S
C632        C959   1.440       .  S
C633        C953   1.441       .  S
C634        C955   1.441       .  S
N635        N636   1.327       .  A
N635        C639   1.351   1_565  A
N635       Cu643   2.117   1_565  S
N636        C637   1.342       .  A
N636       Cu642   2.075       .  S
C637        C638   1.375       .  A
C637        H640   1.082       .  S
C638        C949   1.442       .  S
C638        C639   1.385   1_565  A
C639        H641   1.083       .  S
Cu642       N645   2.074       .  S
Cu643       N653   2.118       .  S
Cu644       N646   2.072       .  S
Cu644       N652   2.073   1_565  S
N645        N646   1.326       .  A
N645        C649   1.344       .  A
N646        C647   1.343       .  A
C647        C648   1.376       .  A
C647        H650   1.080       .  S
C648        C952   1.429       .  S
C648        C649   1.376       .  A
C649        H651   1.080       .  S
N652        N653   1.327       .  A
N652        C656   1.342       .  A
N653        C654   1.351       .  A
C654        C655   1.385       .  A
C654        H657   1.083       .  S
C655       C1065   1.441       .  S
C655        C656   1.375       .  A
C656        H658   1.082       .  S
N659        N660   1.327       .  A
N659        C663   1.351       .  A
N659       Cu667   2.120       .  S
N660        C661   1.342       .  A
N660       Cu666   2.073       .  S
C661        C662   1.375       .  A
C661        H664   1.082       .  S
C662        C945   1.442       .  S
C662        C663   1.385       .  A
C663        H665   1.083       .  S
Cu666       N669   2.073       .  S
Cu667       N677   2.119       .  S
Cu668       N670   2.073       .  S
Cu668       N676   2.074       .  S
N669        N670   1.326       .  A
N669        C673   1.343       .  A
N670        C671   1.344       .  A
C671        C672   1.376       .  A
C671        H674   1.082       .  S
C672        C947   1.429       .  S
C672        C673   1.376       .  A
C673        H675   1.082       .  S
N676        N677   1.327       .  A
N676        C680   1.342       .  A
N677        C678   1.351       .  A
C678        C679   1.385       .  A
C678        H681   1.083       .  S
C679       C1060   1.442       .  S
C679        C680   1.375       .  A
C680        H682   1.082       .  S
N683        N684   1.327       .  A
N683        C687   1.351       .  A
N683       Cu691   2.120       .  S
N684        C685   1.342       .  A
N684       Cu690   2.075   1_565  S
C685        C686   1.375       .  A
C685        H688   1.082       .  S
C686        C954   1.442       .  S
C686        C687   1.385       .  A
C687        H689   1.082       .  S
Cu690       N693   2.074       .  S
Cu691       N701   2.119   1_565  S
Cu692       N694   2.073       .  S
Cu692       N700   2.074       .  S
N693        N694   1.325       .  A
N693        C697   1.344       .  A
N694        C695   1.344       .  A
C695        C696   1.376       .  A
C695        H698   1.082       .  S
C696        C944   1.430       .  S
C696        C697   1.376       .  A
C697        H699   1.082       .  S
N700        N701   1.327       .  A
N700        C704   1.343       .  A
N701        C702   1.351   1_545  A
C702        C703   1.385   1_565  A
C702        H705   1.082       .  S
C703        C942   1.442       .  S
C703        C704   1.375       .  A
C704        H706   1.080       .  S
N707        N708   1.327       .  A
N707        C711   1.351       .  A
N707       Cu715   2.118       .  S
N708        C709   1.342       .  A
N708       Cu714   2.073       .  S
C709        C710   1.375       .  A
C709        H712   1.080       .  S
C710       C1076   1.441       .  S
C710        C711   1.385       .  A
C711        H713   1.081       .  S
Cu714       N717   2.073       .  S
Cu715       N725   2.117       .  S
Cu716       N718   2.073       .  S
Cu716       N724   2.074       .  S
N717        N718   1.326       .  A
N717        C721   1.343       .  A
N718        C719   1.343       .  A
C719        C720   1.376       .  A
C719        H722   1.083       .  S
C720        C940   1.429       .  S
C720        C721   1.376       .  A
C721        H723   1.082       .  S
N724        N725   1.327       .  A
N724        C728   1.342       .  A
N725        C726   1.350       .  A
C726        C727   1.385       .  A
C726        H729   1.083       .  S
C727        C938   1.442       .  S
C727        C728   1.375       .  A
C728        H730   1.082       .  S
O731       Cu739   2.010   1_565  S
O731        C741   1.276       .  A
O732       Cu739   2.010       .  S
O732        C742   1.276       .  A
O733       Cu739   2.010   1_565  S
O733        C743   1.276       .  A
O734       Cu739   2.010       .  S
O734        C744   1.276       .  A
O735       Cu740   2.023   1_545  S
O735        C744   1.277       .  A
O736       Cu740   2.022       .  S
O736        C743   1.277       .  A
O737       Cu740   2.023   1_545  S
O737        C742   1.277       .  A
O738       Cu740   2.022       .  S
O738        C741   1.277       .  A
Cu739      Cu740   2.375   1_545  S
C741        C946   1.440       .  S
C742        C937   1.440       .  S
C743        C950   1.440       .  S
C744        C941   1.441       .  S
N745        N746   1.322       .  A
N745        C749   1.343       .  A
N745       Cu753   2.061       .  S
N746        C747   1.343       .  A
N746       Cu752   2.061       .  S
C747        C748   1.377       .  A
C747        H750   1.083       .  S
C748       C1040   1.429       .  S
C748        C749   1.377       .  A
C749        H751   1.082       .  S
Cu752       N755   2.061       .  S
Cu753       N763   2.061       .  S
Cu754       N756   2.062       .  S
Cu754       N762   2.061       .  S
N755        N756   1.322       .  A
N755        C759   1.343       .  A
N756        C757   1.343       .  A
C757        C758   1.377       .  A
C757        H760   1.082       .  S
C758        C943   1.429       .  S
C758        C759   1.377       .  A
C759        H761   1.083       .  S
N762        N763   1.322       .  A
N762        C766   1.343       .  A
N763        C764   1.343       .  A
C764        C765   1.377       .  A
C764        H767   1.081       .  S
C765       C1007   1.429       .  S
C765        C766   1.377       .  A
C766        H768   1.081       .  S
N769        N770   1.322       .  A
N769        C773   1.343       .  A
N769       Cu777   2.060       .  S
N770        C771   1.343       .  A
N770       Cu776   2.061       .  S
C771        C772   1.377       .  A
C771        H774   1.083       .  S
C772       C1033   1.428       .  S
C772        C773   1.377       .  A
C773        H775   1.083       .  S
Cu776       N779   2.061       .  S
Cu777       N787   2.061       .  S
Cu778       N780   2.061       .  S
Cu778       N786   2.061       .  S
N779        N780   1.322       .  A
N779        C783   1.343       .  A
N780        C781   1.343       .  A
C781        C782   1.377       .  A
C781        H784   1.083       .  S
C782       C1000   1.429       .  S
C782        C783   1.377       .  A
C783        H785   1.083       .  S
N786        N787   1.322       .  A
N786        C790   1.343       .  A
N787        C788   1.343       .  A
C788        C789   1.377       .  A
C788        H791   1.083       .  S
C789        C948   1.429       .  S
C789        C790   1.377       .  A
C790        H792   1.083       .  S
N793        N794   1.322       .  A
N793        C797   1.343       .  A
N793       Cu801   2.061       .  S
N794        C795   1.343       .  A
N794       Cu800   2.061       .  S
C795        C796   1.377       .  A
C795        H798   1.082       .  S
C796        C993   1.429       .  S
C796        C797   1.377       .  A
C797        H799   1.083       .  S
Cu800       N803   2.061       .  S
Cu801       N811   2.061       .  S
Cu802       N804   2.061       .  S
Cu802       N810   2.061       .  S
N803        N804   1.322       .  A
N803        C807   1.343       .  A
N804        C805   1.343       .  A
C805        C806   1.377       .  A
C805        H808   1.081       .  S
C806        C951   1.429       .  S
C806        C807   1.377       .  A
C807        H809   1.081       .  S
N810        N811   1.322       .  A
N810        C814   1.343       .  A
N811        C812   1.343       .  A
C812        C813   1.376       .  A
C812        H815   1.083       .  S
C813       C1026   1.429       .  S
C813        C814   1.377       .  A
C814        H816   1.082       .  S
N817        N818   1.322       .  A
N817        C821   1.343       .  A
N817       Cu825   2.061       .  S
N818        C819   1.343       .  A
N818       Cu824   2.059       .  S
C819        C820   1.376       .  A
C819        H822   1.083       .  S
C820       C1015   1.428       .  S
C820        C821   1.377       .  A
C821        H823   1.082       .  S
Cu824       N827   2.060       .  S
Cu825       N835   2.061       .  S
Cu826       N828   2.061       .  S
Cu826       N834   2.061       .  S
N827        N828   1.322       .  A
N827        C831   1.343       .  A
N828        C829   1.343       .  A
C829        C830   1.377       .  A
C829        H832   1.083       .  S
C830        C985   1.429       .  S
C830        C831   1.376       .  A
C831        H833   1.083       .  S
N834        N835   1.322       .  A
N834        C838   1.343       .  A
N835        C836   1.343       .  A
C836        C837   1.377       .  A
C836        H839   1.081       .  S
C837        C972   1.429       .  S
C837        C838   1.377       .  A
C838        H840   1.081       .  S
N841        N842   1.322       .  A
N841        C845   1.343       .  A
N841       Cu849   2.060       .  S
N842        C843   1.343       .  A
N842       Cu848   2.060       .  S
C843        C844   1.376       .  A
C843        H846   1.083       .  S
C844        C990   1.428       .  S
C844        C845   1.377       .  A
C845        H847   1.083       .  S
Cu848       N851   2.060       .  S
Cu849       N859   2.060       .  S
Cu850       N852   2.061       .  S
Cu850       N858   2.061       .  S
N851        N852   1.322       .  A
N851        C855   1.343       .  A
N852        C853   1.343       .  A
C853        C854   1.377       .  A
C853        H856   1.083       .  S
C854        C957   1.428       .  S
C854        C855   1.376       .  A
C855        H857   1.083       .  S
N858        N859   1.322       .  A
N858        C862   1.343       .  A
N859        C860   1.343       .  A
C860        C861   1.376       .  A
C860        H863   1.083       .  S
C861       C1043   1.428       .  S
C861        C862   1.377       .  A
C862        H864   1.083       .  S
N865        N866   1.322       .  A
N865        C869   1.343       .  A
N865       Cu873   2.061       .  S
N866        C867   1.343       .  A
N866       Cu872   2.060       .  S
C867        C868   1.377       .  A
C867        H870   1.081       .  S
C868       C1020   1.429       .  S
C868        C869   1.377       .  A
C869        H871   1.081       .  S
Cu872       N875   2.060       .  S
Cu873       N883   2.062       .  S
Cu874       N876   2.061       .  S
Cu874       N882   2.061       .  S
N875        N876   1.322       .  A
N875        C879   1.343       .  A
N876        C877   1.343       .  A
C877        C878   1.377       .  A
C877        H880   1.083       .  S
C878        C975   1.429       .  S
C878        C879   1.377       .  A
C879        H881   1.082       .  S
N882        N883   1.322       .  A
N882        C886   1.343       .  A
N883        C884   1.343       .  A
C884        C885   1.377       .  A
C884        H887   1.082       .  S
C885        C966   1.429       .  S
C885        C886   1.377       .  A
C886        H888   1.083       .  S
N889        N890   1.322       .  A
N889        C893   1.343       .  A
N889       Cu897   2.061       .  S
N890        C891   1.343       .  A
N890       Cu896   2.061       .  S
C891        C892   1.377       .  A
C891        H894   1.081       .  S
C892       C1030   1.429       .  S
C892        C893   1.377       .  A
C893        H895   1.081       .  S
Cu896       N899   2.061       .  S
Cu897       N907   2.061       .  S
Cu898       N900   2.062       .  S
Cu898       N906   2.062       .  S
N899        N900   1.322       .  A
N899        C903   1.343       .  A
N900        C901   1.343       .  A
C901        C902   1.377       .  A
C901        H904   1.083       .  S
C902        C979   1.429       .  S
C902        C903   1.377       .  A
C903        H905   1.082       .  S
N906        N907   1.322       .  A
N906        C910   1.343       .  A
N907        C908   1.343       .  A
C908        C909   1.377       .  A
C908        H911   1.082       .  S
C909       C1004   1.429       .  S
C909        C910   1.377       .  A
C910        H912   1.083       .  S
N913        N914   1.322       .  A
N913        C917   1.343       .  A
N913       Cu921   2.060       .  S
N914        C915   1.343       .  A
N914       Cu920   2.060       .  S
C915        C916   1.377       .  A
C915        H918   1.081       .  S
C916        C962   1.428       .  S
C916        C917   1.377       .  A
C917        H919   1.081       .  S
Cu920       N923   2.060       .  S
Cu921       N931   2.060       .  S
Cu922       N924   2.060       .  S
Cu922       N930   2.060       .  S
N923        N924   1.322       .  A
N923        C927   1.343       .  A
N924        C925   1.343       .  A
C925        C926   1.377       .  A
C925        H928   1.083       .  S
C926        C939   1.428       .  S
C926        C927   1.377       .  A
C927        H929   1.083       .  S
N930        N931   1.322       .  A
N930        C934   1.343       .  A
N931        C932   1.343       .  A
C932        C933   1.376       .  A
C932        H935   1.082       .  S
C933       C1047   1.428       .  S
C933        C934   1.376       .  A
C934        H936   1.083       .  S
C937        C938   1.209       .  T
C939        C940   1.201       .  T
C941        C942   1.209   1_455  T
C943        C944   1.201       .  T
C945        C946   1.209       .  T
C947        C948   1.201   1_455  T
C949        C950   1.209       .  T
C951        C952   1.201       .  T
C953        C954   1.209       .  T
C955        C956   1.209       .  T
C957        C958   1.201       .  T
C959        C960   1.209       .  T
C961        C962   1.201       .  T
C963        C964   1.209       .  T
C965        C966   1.201       .  T
C967        C968   1.209       .  T
C969        C970   1.209       .  T
C971        C972   1.201       .  T
C973        C974   1.209       .  T
C975        C976   1.201       .  T
C977        C978   1.209   1_655  T
C979        C980   1.201       .  T
C981        C982   1.209       .  T
C983        C984   1.209       .  T
C985        C986   1.201       .  T
C987        C988   1.209       .  T
C989        C990   1.201       .  T
C991        C992   1.209       .  T
C993        C994   1.201       .  T
C995        C996   1.209       .  T
C997        C998   1.209       .  T
C999       C1000   1.201       .  T
C1001      C1002   1.209       .  T
C1003      C1004   1.201       .  T
C1005      C1006   1.209       .  T
C1007      C1008   1.201       .  T
C1009      C1010   1.209       .  T
C1011      C1012   1.209       .  T
C1013      C1014   1.209       .  T
C1015      C1016   1.200       .  T
C1017      C1018   1.209       .  T
C1019      C1020   1.201       .  T
C1021      C1022   1.209       .  T
C1023      C1024   1.209       .  T
C1025      C1026   1.201       .  T
C1027      C1028   1.209       .  T
C1029      C1030   1.201       .  T
C1031      C1032   1.209   1_655  T
C1033      C1034   1.201       .  T
C1035      C1036   1.209   1_655  T
C1037      C1038   1.209       .  T
C1039      C1040   1.201       .  T
C1041      C1042   1.209       .  T
C1043      C1044   1.201       .  T
C1045      C1046   1.209       .  T
C1047      C1048   1.200       .  T
C1049      C1050   1.209       .  T
C1051      C1052   1.209       .  T
C1053      C1054   1.209       .  T
C1055      C1056   1.209       .  T
C1057      C1058   1.209       .  T
C1059      C1060   1.209       .  T
C1061      C1062   1.209       .  T
C1063      C1064   1.209       .  T
C1065      C1066   1.209       .  T
C1067      C1068   1.209       .  T
C1069      C1070   1.209       .  T
C1071      C1072   1.209       .  T
C1073      C1074   1.209       .  T
C1075      C1076   1.208       .  T
C1077      C1078   1.209       .  T
C1079      C1080   1.209       .  T
