geometry optimzed in LAMMPS
_audit_creation_date              2020-11-30 
_audit_creation_method            'lammps2cif' 
_symmetry_space_group_name_H-M    'P1' 
_symmetry_Int_Tables_number       1 
_symmetry_cell_setting            triclinic 
loop_ 
_symmetry_equiv_pos_as_xyz 
  x,y,z 
_cell_length_a                    33.48205843 
_cell_length_b                    33.40807479120357 
_cell_length_c                    35.55903039424674 
_cell_angle_alpha                 90.83872938571812 
_cell_angle_beta                  89.08555599424409 
_cell_angle_gamma                 119.1784585481623 
loop_ 
_atom_site_label 
_atom_site_type_symbol 
_atom_site_fract_x 
_atom_site_fract_y 
_atom_site_fract_z 
_atom_site_charge 
O1          O  0.43781562  0.92949856  0.29903471    -0.80900
O2          O  0.50668247  0.91553913  0.21651865    -0.80900
O3          O  0.39365669  0.95400375  0.21365380    -0.80900
O4          O  0.54882046  0.95661494  0.29428630    -0.80900
O5          O  0.42266136  0.90833399  0.21728392    -0.81000
O6          O  0.51271566  0.96929062  0.34283104    -0.80900
O7          O  0.57733503  0.96604449  0.21902582    -0.80900
O8          O  0.40370635  0.97007906  0.28952827    -0.80900
C9          C  0.40429105  0.93648926  0.30559470     1.08800
C10         C  0.54765256  0.92773055  0.20759268     1.08700
C11         C  0.39016030  0.91468057  0.20856567     1.08800
C12         C  0.53581566  0.95145008  0.32932001     1.08700
O13         O  0.55632279  0.04731565  0.30516619    -0.80900
O14         O  0.45535937  0.98506727  0.16472883    -0.81000
O15         O  0.47716007  0.06277295  0.27434953    -0.80900
O16         O  0.57978678  0.04900419  0.21308939    -0.80900
O17         O  0.54043628  0.99757401  0.16981665    -0.81000
O18         O  0.47445584  0.02365337  0.32404830    -0.80900
O19         O  0.60984824  0.04209772  0.27591748    -0.80900
O20         O  0.46844693  0.04509251  0.19952715    -0.80900
Co21       Co  0.49831312  0.98583664  0.29750564     1.51500
Co22       Co  0.48130393  0.95321383  0.19579595     1.51700
Co23       Co  0.43956284  0.00794174  0.24425985     1.51600
Co24       Co  0.55584887  0.99994534  0.24992276     1.51500
O25         O  0.49203508  0.99277843  0.24363314    -1.42800
C26         C  0.59809448  0.05733192  0.30303039     1.08700
C27         C  0.46248208  0.02594271  0.16774355     1.08800
C28         C  0.47573300  0.05873139  0.30946913     1.08700
C29         C  0.57386582  0.03653734  0.17904839     1.08700
O30         O  0.98236180  0.50999257  0.34534596    -0.80900
O31         O  0.94238488  0.41628690  0.21539279    -0.80900
O32         O  0.96526184  0.56411908  0.22185127    -0.80900
O33         O  0.01160111  0.41646530  0.29062869    -0.80900
O34         O  0.92869516  0.49173147  0.21448881    -0.81000
O35         O  0.95807758  0.43576038  0.30012273    -0.80900
O36         O  0.00087890  0.40444499  0.21437995    -0.80900
O37         O  0.95626153  0.53197419  0.29694744    -0.80900
C38         C  0.95483201  0.52205383  0.33225627     1.08800
C39         C  0.95968947  0.39146627  0.20591088     1.08700
C40         C  0.93434033  0.53056662  0.20515906     1.08800
C41         C  0.97397746  0.40888672  0.30628133     1.08700
O42         O  0.05089063  0.48994129  0.32578648    -0.80900
O43         O  0.01418992  0.54126279  0.17307974    -0.81000
O44         O  0.03414259  0.60698014  0.28340936    -0.80900
O45         O  0.08107714  0.49096841  0.20104333    -0.80900
O46         O  0.01956425  0.46511128  0.16670405    -0.81000
O47         O  0.05976978  0.56522357  0.30623479    -0.80900
O48         O  0.09579295  0.50292537  0.27713451    -0.80900
O49         O  0.05552612  0.58687075  0.21930267    -0.80900
Co50       Co  0.00524928  0.50130158  0.29925008     1.51500
Co51       Co  0.97752979  0.47893339  0.19640953     1.51700
Co52       Co  0.00442189  0.55197793  0.25383977     1.51600
Co53       Co  0.04621996  0.45698373  0.24593462     1.51500
O54         O  0.01515455  0.49696707  0.24535186    -1.42800
C55         C  0.08947713  0.49877406  0.31213303     1.08700
C56         C  0.04746294  0.57908684  0.18457207     1.08800
C57         C  0.05937568  0.60281167  0.30597196     1.08700
C58         C  0.06184682  0.47969110  0.16929779     1.08700
O59         O  0.45281799  0.46311511  0.32682466    -0.80900
O60         O  0.58571496  0.49849944  0.21670587    -0.80900
O61         O  0.43077082  0.39929059  0.21366355    -0.80900
O62         O  0.58543018  0.54520680  0.29048424    -0.80900
O63         O  0.50261301  0.41617033  0.21515613    -0.81000
O64         O  0.53434292  0.53708003  0.33150943    -0.80900
O65         O  0.60513915  0.57047714  0.22037029    -0.80900
O66         O  0.44412345  0.41448161  0.28335485    -0.80900
C67         C  0.44350482  0.42340198  0.31741004     1.08800
C68         C  0.61380297  0.53957266  0.20875763     1.08700
C69         C  0.46157199  0.38834406  0.20654136     1.08800
C70         C  0.57381807  0.54305679  0.32432151     1.08700
O71         O  0.50827628  0.58658172  0.27985649    -0.80900
O72         O  0.46806882  0.45919359  0.16581505    -0.81000
O73         O  0.37675887  0.42946644  0.25661174    -0.80900
O74         O  0.52450935  0.57590292  0.21008842    -0.80900
O75         O  0.54476831  0.53817937  0.16994902    -0.81000
O76         O  0.42069378  0.50226224  0.27116272    -0.80900
O77         O  0.58216897  0.62158220  0.26925434    -0.80900
O78         O  0.43252593  0.48577667  0.20079398    -0.80900
Co79       Co  0.48145090  0.51981078  0.29678711     1.51500
Co80       Co  0.52467552  0.47865536  0.19593193     1.51700
Co81       Co  0.44028258  0.45384746  0.24479800     1.51600
Co82       Co  0.55169393  0.55926521  0.25239797     1.51500
O83         O  0.50638080  0.49447676  0.24786235    -1.42800
C84         C  0.54845102  0.62049202  0.28695609     1.08700
C85         C  0.43749939  0.47071769  0.16920487     1.08800
C86         C  0.38239188  0.46460537  0.27545415     1.08700
C87         C  0.53623354  0.57047247  0.17715078     1.08700
O88         O  0.84290917  0.59118769  0.43674703    -0.80900
O89         O  0.78560940  0.65062894  0.98675046    -0.80900
O90         O  0.73692989  0.55890093  0.44099867    -0.80900
O91         O  0.88668699  0.66903089  0.04667173    -0.80900
O92         O  0.69860352  0.58531683  0.47410757    -0.81000
O93         O  0.88786597  0.66025758  0.48410749    -0.80900
O94         O  0.80299411  0.66718977  0.04624724    -0.80900
O95         O  0.79455980  0.51941313  0.43783582    -0.80900
C96         C  0.82827986  0.55237095  0.42218766     1.08800
C97         C  0.79369915  0.67776564  0.01438704     1.08700
C98         C  0.70452627  0.56986195  0.44314150     1.08800
C99         C  0.90552082  0.68324344  0.01455215     1.08700
O100        O  0.89843758  0.59841742  0.03849676    -0.80900
O101        O  0.70294857  0.51714757  0.01277238    -0.81000
O102        O  0.78035599  0.49389449  0.51410866    -0.80900
O103        O  0.76253523  0.57473361  0.08050825    -0.80900
O104        O  0.72457049  0.59736136  0.04659120    -0.81000
O105        O  0.85004613  0.52773445  0.48979602    -0.80900
O106        O  0.84084645  0.57692417  0.07810785    -0.80900
O107        O  0.70997266  0.47474621  0.46704677    -0.80900
Co108      Co  0.86712297  0.59489504  0.48710523     1.51500
Co109      Co  0.74857043  0.58501746  0.99803566     1.51700
Co110      Co  0.76127491  0.52936985  0.48130267     1.51600
Co111      Co  0.82194758  0.61971246  0.06026304     1.51500
O112        O  0.80643437  0.58523988  0.01050268    -1.42800
C113        C  0.87898923  0.58084851  0.06970251     1.08700
C114        C  0.68754549  0.48053807  0.49350207     1.08800
C115        C  0.81669897  0.49287883  0.50506331     1.08700
C116        C  0.72879635  0.58064891  0.07690327     1.08700
O117        O  0.69604924  0.11692391  0.46523246    -0.80900
O118        O  0.88598460  0.22466561  0.98200685    -0.80900
O119        O  0.84703737  0.24896738  0.43141665    -0.80900
O120        O  0.79935140  0.11658948  0.03461389    -0.80900
O121        O  0.89885915  0.30853619  0.46433060    -0.81000
O122        O  0.77691488  0.12116994  0.47849841    -0.80900
O123        O  0.88589826  0.20105837  0.03838172    -0.80900
O124        O  0.75467087  0.16488284  0.43012259    -0.80900
C125        C  0.71259491  0.13209180  0.43303801     1.08800
C126        C  0.90747035  0.21739330  0.00757939     1.08700
C127        C  0.88297397  0.28939960  0.43245618     1.08800
C128        C  0.78393055  0.09743475  0.00288380     1.08700
O129        O  0.71829213  0.11210927  0.03803731    -0.80900
O130        O  0.83432600  0.30328741  0.01870746    -0.81000
O131        O  0.72059464  0.21983765  0.46537796    -0.80900
O132        O  0.83972499  0.23845748  0.08344135    -0.80900
O133        O  0.89445058  0.28417545  0.04459844    -0.81000
O134        O  0.70586728  0.18168004  0.51597942    -0.80900
O135        O  0.75948345  0.15993417  0.08172926    -0.80900
O136        O  0.80151138  0.29497965  0.46382537    -0.80900
Co137      Co  0.74469774  0.15607210  0.49520923     1.51500
Co138      Co  0.85599444  0.26136819  0.99803767     1.51700
Co139      Co  0.78368472  0.22892944  0.45535860     1.51600
Co140      Co  0.81968224  0.18077440  0.05564596     1.51500
O141        O  0.79842715  0.20850948  0.01282675    -1.42800
C142        C  0.72219055  0.12604806  0.07143788     1.08700
C143        C  0.81698108  0.31857187  0.49305989     1.08800
C144        C  0.69467722  0.20274708  0.49338744     1.08700
C145        C  0.87656928  0.27489849  0.07734703     1.08700
O146        O  0.27920349  0.85925680  0.45955923    -0.80900
O147        O  0.11657867  0.76974280  0.98343141    -0.80900
O148        O  0.17468262  0.74054072  0.44059248    -0.80900
O149        O  0.20337855  0.88011605  0.03186029    -0.80900
O150        O  0.11277248  0.68833523  0.47007884    -0.81000
O151        O  0.27888768  0.89612729  0.52583796    -0.80900
O152        O  0.12151074  0.79975347  0.03952160    -0.80900
O153        O  0.26604097  0.79401949  0.43666075    -0.80900
C154        C  0.28357193  0.83664704  0.43257328     1.08800
C155        C  0.09929691  0.78258739  0.00996934     1.08700
C156        C  0.13446523  0.70501370  0.43961821     1.08800
C157        C  0.24515987  0.90815003  0.02472431     1.08700
O158        O  0.26985271  0.81310383  0.06324650    -0.80900
O159        O  0.18423976  0.70079696  0.01247066    -0.81000
O160        O  0.28570550  0.77541205  0.50935861    -0.80900
O161        O  0.16576504  0.76376256  0.08515650    -0.80900
O162        O  0.11791521  0.71752312  0.04303618    -0.81000
O163        O  0.33417794  0.85115012  0.51056880    -0.80900
O164        O  0.24012816  0.85166445  0.08673515    -0.80900
O165        O  0.22790153  0.70562742  0.46416235    -0.80900
Co166      Co  0.27162804  0.83415561  0.51172179     1.51500
Co167      Co  0.15448772  0.74040219  0.99673232     1.51700
Co168      Co  0.22589479  0.75950086  0.47992837     1.51600
Co169      Co  0.18402347  0.82185538  0.05728422     1.51500
O170        O  0.20587768  0.80249719  0.00930645    -1.42800
C171        C  0.26460335  0.83371467  0.09092659     1.08700
C172        C  0.20339271  0.68284795  0.49190297     1.08800
C173        C  0.32727303  0.81005808  0.51129015     1.08700
C174        C  0.13267191  0.72505090  0.07613050     1.08700
O175        O  0.52050238  0.80532128  0.51746013    -0.80900
O176        O  0.62049914  0.70888777  0.03377390    -0.80900
O177        O  0.51374576  0.70908719  0.52117547    -0.80900
O178        O  0.59219239  0.81733943  0.07992785    -0.80900
O179        O  0.54824581  0.68031359  0.98719686    -0.81000
O180        O  0.60401165  0.87476769  0.04572881    -0.80900
O181        O  0.60355802  0.74685402  0.07651768    -0.87200
O182        O  0.48030607  0.75049503  0.47658306    -0.80900
C183        C  0.48161725  0.77819344  0.50165298     1.08800
C184        C  0.60635813  0.71223643  0.06652457     1.08700
C185        C  0.51481458  0.67365834  0.50928324     1.08800
C186        C  0.59296374  0.85473959  0.07692785     1.08700
O187        O  0.65466021  0.87420666  0.48253095    -0.80900
O188        O  0.60751834  0.75042410  0.43542374    -0.81000
O189        O  0.55964439  0.81290733  0.44516583    -0.80900
O190        O  0.69086213  0.79433986  0.04074144    -0.80900
O191        O  0.67789918  0.78153246  0.98102293    -0.81000
O192        O  0.57575735  0.87806379  0.47470200    -0.80900
O193        O  0.68060826  0.87438719  0.03882461    -0.80900
O194        O  0.53462066  0.72315961  0.44195069    -0.80900
Co195      Co  0.58934877  0.83608333  0.49803614     1.51500
Co196      Co  0.61319103  0.73463410  0.98459786     1.51700
Co197      Co  0.53976620  0.76267948  0.48693114     1.51600
Co198      Co  0.63949284  0.80733624  0.05588857     1.51500
O199        O  0.60099013  0.78390615  0.00819345    -1.42800
C200        C  0.68494487  0.89499340  0.00755664     1.08700
C201        C  0.56818543  0.72901094  0.42142592     1.08800
C202        C  0.56419244  0.85366019  0.44517186     1.08700
C203        C  0.70211655  0.78511460  0.00881213     1.08700
O204        O  0.18066148  0.42163244  0.42485279    -0.80900
O205        O  0.22544485  0.33763074  0.97303805    -0.80900
O206        O  0.29578057  0.48548946  0.43477478    -0.80900
O207        O  0.13326337  0.33313348  0.03075000    -0.80900
O208        O  0.26175935  0.41151515  0.42530764    -0.81000
O209        O  0.13384475  0.34363002  0.46994737    -0.80900
O210        O  0.21653308  0.33018774  0.03313706    -0.80900
O211        O  0.22379853  0.49392660  0.43849216    -0.80900
C212        C  0.19667138  0.46311953  0.41614163     1.08800
C213        C  0.22381471  0.31562514  0.00194844     1.08700
C214        C  0.28475340  0.45157303  0.41257580     1.08800
C215        C  0.11177597  0.32093846  0.99942591     1.08700
O216        O  0.12639435  0.40293478  0.02764434    -0.80900
O217        O  0.33309456  0.46494466  0.97856400    -0.81000
O218        O  0.22832870  0.50295997  0.52051543    -0.80900
O219        O  0.26105735  0.42262038  0.06431266    -0.80900
O220        O  0.29565775  0.39658758  0.02731648    -0.81000
O221        O  0.16757620  0.47559288  0.48594773    -0.80900
O222        O  0.18533796  0.42647165  0.06324106    -0.80900
O223        O  0.30815432  0.49991610  0.51775087    -0.80900
Co224      Co  0.15733877  0.41025870  0.47692306     1.51500
Co225      Co  0.27310391  0.40248737  0.97613963     1.51700
Co226      Co  0.26127257  0.49016756  0.48064708     1.51600
Co227      Co  0.20068948  0.38121605  0.04396817     1.51500
O228        O  0.22226273  0.41960835  0.99362113    -1.42800
C229        C  0.14790102  0.42424297  0.05668097     1.08700
C230        C  0.34215911  0.49910284  0.50311515     1.08800
C231        C  0.19606531  0.50730001  0.50746301     1.08700
C232        C  0.29525306  0.41787606  0.05713614     1.08700
O233        O  0.48372716  0.16520375  0.47619206    -0.80900
O234        O  0.40552341  0.28099876  0.04549928    -0.80900
O235        O  0.51598498  0.30729616  0.45997146    -0.80900
O236        O  0.42315093  0.15802236  0.06999719    -0.80900
O237        O  0.48196869  0.30079141  0.01478884    -0.81000
O238        O  0.40784791  0.10837714  0.02351373    -0.80900
O239        O  0.42482636  0.23858282  0.07821513    -0.80900
O240        O  0.51816524  0.23925999  0.48946488    -0.80900
C241        C  0.51962375  0.20231017  0.48619312     1.08800
C242        C  0.41992393  0.27328416  0.07594577     1.08700
C243        C  0.51628577  0.32474329  0.49077799     1.08800
C244        C  0.42195403  0.12225433  0.05648487     1.08700
O245        O  0.34871611  0.12289540  0.47518718    -0.80900
O246        O  0.42033468  0.31034564  0.46812871    -0.81000
O247        O  0.48458871  0.21768728  0.41841182    -0.80900
O248        O  0.33564049  0.20247214  0.04058141    -0.80900
O249        O  0.35341466  0.22281602  0.98197015    -0.81000
O250        O  0.41439783  0.16860636  0.42456201    -0.80900
O251        O  0.33543446  0.11811589  0.03637079    -0.80900
O252        O  0.43647675  0.26743585  0.42956519    -0.80900
Co253      Co  0.41484728  0.14601780  0.47577369     1.51500
Co254      Co  0.41833838  0.25894338  0.99550823     1.51700
Co255      Co  0.47023645  0.24379490  0.46227600     1.51600
Co256      Co  0.38230359  0.18109583  0.05326487     1.51500
O257        O  0.42111208  0.20240335  0.00486728    -1.42800
C258        C  0.32414670  0.09997694  0.00400539     1.08700
C259        C  0.42677526  0.29999855  0.43482138     1.08800
C260        C  0.45089071  0.18301704  0.40593335     1.08700
C261        C  0.32655445  0.21542612  0.00961155     1.08700
C262        C  0.24298546  0.26097347  0.03539086    -0.21100
C263        C  0.24083757  0.28086220  0.00124988    -0.07600
C264        C  0.26094463  0.27187459  0.96887019     0.13200
C265        C  0.28483145  0.24691816  0.97227825    -0.21100
C266        C  0.29072561  0.23082611  0.00711333    -0.07600
C267        C  0.26754473  0.23660054  0.03886898     0.13200
C268        C  0.26981971  0.21908067  0.07712667    -0.24500
H269        H  0.22736350  0.26667158  0.06033336     0.14500
H270        H  0.30143912  0.24230113  0.94748581     0.14500
C271        C  0.25956671  0.28997760  0.93056179    -0.24400
H272        H  0.24829778  0.22491866  0.09818744     0.04700
H273        H  0.30548827  0.23725289  0.08742612     0.08000
H274        H  0.26217244  0.18602554  0.57799117     0.08000
H275        H  0.27933238  0.32800457  0.93066296     0.08000
H276        H  0.21976860  0.27518309  0.42463577     0.08000
H277        H  0.27501364  0.27779382  0.90845382     0.04700
C278        C  0.39533008  0.57370448  0.53541577    -0.21100
C279        C  0.38963530  0.53982620  0.50854369    -0.07600
C280        C  0.42818923  0.54838764  0.48568725     0.13200
C281        C  0.46891170  0.59117856  0.48812025    -0.21100
C282        C  0.47320600  0.62643959  0.51289101    -0.07600
C283        C  0.43613803  0.61629865  0.53806574     0.13200
C284        C  0.44207999  0.64561454  0.06999521    -0.24500
H285        H  0.36693607  0.56747567  0.55398178     0.14500
H286        H  0.49710690  0.59770988  0.46920798     0.14500
C287        C  0.42683522  0.51328996  0.45791457    -0.24400
H288        H  0.41279477  0.62916472  0.09001051     0.04700
H289        H  0.44069453  0.68069931  0.55519646     0.08000
H290        H  0.47371642  0.65363590  0.08545576     0.08000
H291        H  0.40068634  0.50602313  0.43623041     0.08000
H292        H  0.41787180  0.48515315  0.96212619     0.08000
H293        H  0.46015685  0.52532471  0.44311781     0.04700
C294        C  0.28921082  0.97627236  0.48428918    -0.21100
C295        C  0.25793305  0.95572537  0.01575022    -0.07600
C296        C  0.24394351  0.98190204  0.03831809     0.13200
C297        C  0.26197905  0.02865793  0.03074405    -0.21100
C298        C  0.29379374  0.04979479  0.00142441    -0.07600
C299        C  0.30719616  0.02297323  0.47660541     0.13200
C300        C  0.33859338  0.04221154  0.44287783    -0.24500
H301        H  0.29778170  0.95522283  0.46601940     0.14500
H302        H  0.25393963  0.04958975  0.04961206     0.14500
C303        C  0.21288688  0.96170643  0.07202593    -0.24400
H304        H  0.34103109  0.01502026  0.42631452     0.04700
H305        H  0.37096407  0.06614555  0.95276310     0.08000
H306        H  0.32540277  0.05911576  0.42392654     0.08000
H307        H  0.22807662  0.94737382  0.09165226     0.08000
H308        H  0.17884358  0.93420191  0.06287223     0.08000
H309        H  0.20760030  0.98782556  0.08762698     0.04700
C310        C  0.15696473  0.55430495  0.50225875    -0.21100
C311        C  0.19699531  0.55243344  0.51032123    -0.07600
C312        C  0.23838697  0.59447125  0.51587379     0.13200
C313        C  0.23878848  0.63632364  0.51092588    -0.21100
C314        C  0.19933889  0.63787777  0.50109922    -0.07600
C315        C  0.15756408  0.59640774  0.49788491     0.13200
C316        C  0.11393204  0.59628899  0.48817818    -0.24500
H317        H  0.12527325  0.52261703  0.49800887     0.14500
H318        H  0.27044115  0.66824115  0.51412064     0.14500
C319        C  0.28307901  0.59630840  0.52530836    -0.24400
H320        H  0.08447741  0.56095258  0.48660371     0.04700
H321        H  0.11779192  0.61249393  0.46038376     0.08000
H322        H  0.12980197  0.62921790  0.05015190     0.08000
H323        H  0.29350559  0.58043316  0.50226861     0.08000
H324        H  0.29734331  0.58303893  0.00817992     0.08000
H325        H  0.31119994  0.63204448  0.52902221     0.04700
C326        C  0.44451386  0.82077076  0.52966396    -0.21100
C327        C  0.43958612  0.78110158  0.51114708    -0.07600
C328        C  0.39712095  0.75120152  0.00869309     0.13200
C329        C  0.36089284  0.76092181  0.00844135    -0.21100
C330        C  0.36596723  0.80044908  0.51497837    -0.07600
C331        C  0.40862964  0.83133287  0.53119605     0.13200
C332        C  0.41734947  0.87592921  0.54930447    -0.24500
H333        H  0.47762522  0.84539811  0.54069287     0.14500
H334        H  0.32705258  0.73334662  0.00196569     0.14500
C335        C  0.38575010  0.70222288  0.00185207    -0.24400
H336        H  0.45154369  0.89407774  0.56260648     0.04700
H337        H  0.39137783  0.86950423  0.57150154     0.08000
H338        H  0.41620560  0.89909918  0.52783937     0.08000
H339        H  0.41436112  0.69576248  0.00793578     0.08000
H340        H  0.40425100  0.70992684  0.45163017     0.08000
H341        H  0.35708555  0.67938146  0.02071368     0.04700
C342        C  0.77495420  0.02228163  0.02767680    -0.21100
C343        C  0.76686924  0.04574476  0.99846695    -0.07600
C344        C  0.73725548  0.01829121  0.46939163     0.13200
C345        C  0.71367054  0.96975239  0.47227816    -0.21100
C346        C  0.71916229  0.94607394  0.00278472    -0.07600
C347        C  0.75276943  0.97354363  0.02972284     0.13200
C348        C  0.76693090  0.95215238  0.06009581    -0.24500
H349        H  0.79826996  0.04227084  0.04987353     0.14500
H350        H  0.68962486  0.94980986  0.45049939     0.14500
C351        C  0.72833679  0.03843648  0.43524538    -0.24400
H352        H  0.79578623  0.97845774  0.07679933     0.04700
H353        H  0.77518950  0.92866400  0.54971700     0.08000
H354        H  0.73843499  0.93251585  0.07993376     0.08000
H355        H  0.76088027  0.06546215  0.42292250     0.08000
H356        H  0.70749067  0.05234938  0.94200811     0.08000
H357        H  0.71068436  0.01219120  0.41301511     0.04700
C358        C  0.03664753  0.26194576  0.03055728    -0.21100
C359        C  0.05968732  0.28763392  0.99833998    -0.07600
C360        C  0.03128662  0.28468107  0.96756903     0.13200
C361        C  0.98264710  0.25938998  0.97082976    -0.21100
C362        C  0.95956813  0.23594248  0.00384634    -0.07600
C363        C  0.98789688  0.23629747  0.03365758     0.13200
C364        C  0.96740332  0.21024085  0.06943444    -0.24500
H365        H  0.05703410  0.26294732  0.05427758     0.14500
H366        H  0.96233159  0.25955821  0.94747830     0.14500
C367        C  0.05141438  0.30946723  0.93118122    -0.24400
H368        H  0.99406866  0.21234883  0.08880727     0.04700
H369        H  0.94509226  0.17246068  0.56131430     0.08000
H370        H  0.94797681  0.22456281  0.08462003     0.08000
H371        H  0.07449702  0.30016109  0.41823957     0.08000
H372        H  0.07028450  0.34704682  0.93629724     0.08000
H373        H  0.02465011  0.30259220  0.91009378     0.04700
C374        C  0.64543725  0.23510393  0.47230986    -0.21100
C375        C  0.65076554  0.20514836  0.49657302    -0.07600
C376        C  0.60867984  0.16770276  0.01872087     0.13200
C377        C  0.56616822  0.16697759  0.01505455    -0.21100
C378        C  0.56494685  0.20408880  0.49029132    -0.07600
C379        C  0.60376193  0.23550744  0.46930039     0.13200
C380        C  0.60137336  0.26890488  0.44255112    -0.24500
H381        H  0.67414285  0.25826763  0.45493822     0.14500
H382        H  0.53614063  0.14126131  0.02970828     0.14500
C383        C  0.61076012  0.13262474  0.04338383    -0.24400
H384        H  0.63429423  0.28958528  0.42736605     0.04700
H385        H  0.59353466  0.29318865  0.45827852     0.08000
H386        H  0.57468848  0.25015017  0.42121869     0.08000
H387        H  0.63579998  0.15019903  0.06615509     0.08000
H388        H  0.62108203  0.11114801  0.02631990     0.08000
H389        H  0.57714639  0.10959445  0.05677043     0.04700
C390        C  0.02608764  0.75928929  0.97648575    -0.21100
C391        C  0.05018683  0.77111753  0.01023808    -0.07600
C392        C  0.02515317  0.76559930  0.04452669     0.13200
C393        C  0.97722195  0.74157443  0.04412634    -0.21100
C394        C  0.95327732  0.72200211  0.01099939    -0.07600
C395        C  0.97798712  0.73439579  0.97620645     0.13200
C396        C  0.95478153  0.72034575  0.93854312    -0.24500
H397        H  0.04508485  0.76726367  0.95020937     0.14500
H398        H  0.95850508  0.73467411  0.07053909     0.14500
C399        C  0.04758085  0.78197915  0.08239403    -0.24400
H400        H  0.97923992  0.73742310  0.91499055     0.04700
H401        H  0.92996246  0.72868010  0.43417729     0.08000
H402        H  0.94007438  0.68288453  0.93399995     0.08000
H403        H  0.07245799  0.81791890  0.58117967     0.08000
H404        H  0.06588616  0.76321657  0.09022665     0.08000
H405        H  0.02223214  0.77594746  0.10519650     0.04700
C406        C  0.76201162  0.77121033  0.03811737    -0.21100
C407        C  0.73691147  0.76897119  0.00593873    -0.07600
C408        C  0.74052738  0.74486967  0.97387339     0.13200
C409        C  0.76364404  0.71945600  0.97673644    -0.21100
C410        C  0.78327686  0.71654345  0.01058053    -0.07600
C411        C  0.78557470  0.74593280  0.04073775     0.13200
C412        C  0.81262096  0.75122111  0.07575173    -0.24500
H413        H  0.76132013  0.79104777  0.06226137     0.14500
H414        H  0.76338987  0.69895562  0.95274707     0.14500
C415        C  0.71819774  0.74303580  0.93682226    -0.24400
H416        H  0.81357532  0.77839076  0.09470940     0.04700
H417        H  0.84815550  0.76019107  0.56936687     0.08000
H418        H  0.79734186  0.71905873  0.09204202     0.08000
H419        H  0.72693830  0.77792461  0.42881867     0.08000
H420        H  0.68038969  0.72387447  0.93991644     0.08000
H421        H  0.72735831  0.72511371  0.91460518     0.04700
C422        C  0.79918147  0.37282066  0.03287105    -0.21100
C423        C  0.81814470  0.36366370  0.49737422    -0.07600
C424        C  0.83737269  0.39724342  0.46894490     0.13200
C425        C  0.83729796  0.43902407  0.47344114    -0.21100
C426        C  0.81827332  0.44886472  0.50544234    -0.07600
C427        C  0.79935010  0.41508484  0.03733290     0.13200
C428        C  0.77965824  0.42271802  0.07334675    -0.24500
H429        H  0.78260285  0.34659203  0.05403405     0.14500
H430        H  0.85126349  0.46388543  0.45101067     0.14500
C431        C  0.85872505  0.38968193  0.43378452    -0.24400
H432        H  0.79840256  0.41964243  0.09756493     0.04700
H433        H  0.74538832  0.39729603  0.57477225     0.08000
H434        H  0.78212731  0.45694999  0.07520392     0.08000
H435        H  0.83244370  0.36068491  0.41722951     0.08000
H436        H  0.88647223  0.38231204  0.44143473     0.08000
H437        H  0.87385250  0.42027876  0.41535839     0.04700
C438        C  0.59289551  0.36359897  0.51610725    -0.21100
C439        C  0.55624141  0.36694342  0.50131715    -0.07600
C440        C  0.56178376  0.40930449  0.48920255     0.13200
C441        C  0.60512008  0.44778724  0.49093957    -0.21100
C442        C  0.64251850  0.44351323  0.50265456    -0.07600
C443        C  0.63653209  0.40163894  0.51635700     0.13200
C444        C  0.67629019  0.39690743  0.53000477    -0.24500
H445        H  0.58796231  0.33047880  0.52477809     0.14500
H446        H  0.61052007  0.47688491  0.97737974     0.14500
C447        C  0.52325152  0.40931583  0.96954206    -0.24400
H448        H  0.66524383  0.36186789  0.54055723     0.04700
H449        H  0.69185408  0.42304038  0.05731926     0.08000
H450        H  0.70136003  0.40393311  0.50680374     0.08000
H451        H  0.49371456  0.39857862  0.98914045     0.08000
H452        H  0.51105139  0.39153550  0.44629491     0.08000
H453        H  0.53387717  0.44464154  0.95994645     0.04700
C454        C  0.48575292  0.36341001  0.14979256    -0.21100
C455        C  0.45242904  0.35232705  0.17810725    -0.07600
C456        C  0.40878057  0.31351232  0.17327392     0.13200
C457        C  0.39876107  0.28889111  0.13911655    -0.21100
C458        C  0.43080781  0.30299592  0.10949123    -0.07600
C459        C  0.47523191  0.33986185  0.11545266     0.13200
C460        C  0.51142081  0.35572931  0.08542910    -0.24500
H461        H  0.51924195  0.39323800  0.15314590     0.14500
H462        H  0.36569515  0.25864931  0.13541495     0.14500
C463        C  0.37315054  0.29747243  0.20415942    -0.24400
H464        H  0.54402923  0.38564963  0.09456277     0.04700
H465        H  0.49923664  0.36642808  0.06070212     0.08000
H466        H  0.51870070  0.32752391  0.07814318     0.08000
H467        H  0.36167853  0.32305017  0.20962006     0.08000
H468        H  0.38759942  0.29203798  0.23026144     0.08000
H469        H  0.34246993  0.26459515  0.19660504     0.04700
C470        C  0.44407625  0.35365272  0.33818179    -0.21100
C471        C  0.43281504  0.38812749  0.34610703    -0.07600
C472        C  0.41292504  0.38875376  0.38138507     0.13200
C473        C  0.40869460  0.35739957  0.40886428    -0.21100
C474        C  0.42409079  0.32565132  0.40226370    -0.07600
C475        C  0.44024461  0.32242539  0.36569383     0.13200
C476        C  0.45514438  0.28768597  0.35516820    -0.24500
H477        H  0.45808117  0.35248790  0.31073618     0.14500
H478        H  0.39474516  0.35894392  0.43622460     0.14500
C479        C  0.39565677  0.42189722  0.39042371    -0.24400
H480        H  0.46566487  0.29014047  0.32513018     0.04700
H481        H  0.42636530  0.25248221  0.35958031     0.08000
H482        H  0.48503253  0.29347271  0.37218530     0.08000
H483        H  0.37107531  0.41904521  0.36871244     0.08000
H484        H  0.42456421  0.45745575  0.39151912     0.08000
H485        H  0.37769828  0.41471173  0.41808975     0.04700
C486        C  0.65475687  0.58853148  0.15458984    -0.21100
C487        C  0.64634074  0.55052583  0.17685426    -0.07600
C488        C  0.66373692  0.52148081  0.16482464     0.13200
C489        C  0.68932757  0.53162227  0.13131322    -0.21100
C490        C  0.69675835  0.56906412  0.10889357    -0.07600
C491        C  0.67865154  0.59748756  0.12041546     0.13200
C492        C  0.68502810  0.63773769  0.09736105    -0.24500
H493        H  0.64112544  0.61074476  0.16318639     0.14500
H494        H  0.70362522  0.51000384  0.12240814     0.14500
C495        C  0.65630629  0.48037586  0.18720511    -0.24400
H496        H  0.66996275  0.65720431  0.11145095     0.04700
H497        H  0.66814816  0.62556341  0.06973143     0.08000
H498        H  0.72193438  0.66158526  0.09292574     0.08000
H499        H  0.61953705  0.45419908  0.18744971     0.08000
H500        H  0.66827046  0.49104342  0.21645979     0.08000
H501        H  0.67542424  0.46385243  0.17491211     0.04700
C502        C  0.63725392  0.57382261  0.41822934    -0.21100
C503        C  0.67341133  0.56439168  0.41097844    -0.07600
C504        C  0.67626105  0.54772111  0.37468308     0.13200
C505        C  0.64335835  0.54100412  0.34728531    -0.21100
C506        C  0.60679158  0.54958981  0.35500677    -0.07600
C507        C  0.60412610  0.56658040  0.39120979     0.13200
C508        C  0.56715092  0.57828495  0.40180110    -0.24500
H509        H  0.63422947  0.58655411  0.44571733     0.14500
H510        H  0.64599605  0.52842307  0.31960669     0.14500
C511        C  0.71369897  0.53693530  0.36433960    -0.24400
H512        H  0.57168253  0.59304939  0.43062633     0.04700
H513        H  0.53317834  0.54688766  0.40115208     0.08000
H514        H  0.56783816  0.60403940  0.38206500     0.08000
H515        H  0.71127476  0.50899022  0.38238560     0.08000
H516        H  0.74740963  0.56815700  0.36802134     0.08000
H517        H  0.71138744  0.52539555  0.33460892     0.04700
C518        C  0.58199520  0.65098625  0.15935303    -0.21100
C519        C  0.54959376  0.60644322  0.14870763    -0.07600
C520        C  0.53835274  0.59622550  0.11024258     0.13200
C521        C  0.55955771  0.63092999  0.08345970    -0.21100
C522        C  0.59159436  0.67546834  0.09424902    -0.07600
C523        C  0.60355282  0.68556119  0.13262736     0.13200
C524        C  0.64058935  0.73211485  0.14542000    -0.24500
H525        H  0.59205923  0.65824969  0.18858279     0.14500
H526        H  0.54984900  0.62369055  0.05417373     0.14500
C527        C  0.50254465  0.54948612  0.09742003    -0.24400
H528        H  0.64842043  0.73232383  0.17568710     0.04700
H529        H  0.62983050  0.75835262  0.14166815     0.08000
H530        H  0.67251063  0.74178799  0.12906762     0.08000
H531        H  0.46971053  0.54130285  0.11140063     0.08000
H532        H  0.51273822  0.52353872  0.10435287     0.08000
H533        H  0.49720729  0.54793691  0.06655735     0.04700
C534        C  0.51590039  0.65337205  0.33398198    -0.21100
C535        C  0.55493948  0.65518032  0.31683209    -0.07600
C536        C  0.59847715  0.68584106  0.33204850     0.13200
C537        C  0.60124809  0.71143497  0.36454840    -0.21100
C538        C  0.56204575  0.70695341  0.38340258    -0.07600
C539        C  0.51870139  0.67849292  0.36697510     0.13200
C540        C  0.47491799  0.67313176  0.38420815    -0.24500
H541        H  0.48250203  0.63044985  0.32249097     0.14500
H542        H  0.63464455  0.73356046  0.37639004     0.14500
C543        C  0.64248728  0.69053135  0.31584831    -0.24400
H544        H  0.47698318  0.70721946  0.38728417     0.04700
H545        H  0.46868739  0.65636662  0.41204451     0.08000
H546        H  0.44487476  0.65149929  0.36643377     0.08000
H547        H  0.64650395  0.70153781  0.28608008     0.08000
H548        H  0.64250922  0.65740721  0.31789871     0.08000
H549        H  0.67294438  0.71653643  0.33123541     0.04700
C550        C  0.37410612  0.47833993  0.14064665    -0.21100
C551        C  0.40483031  0.46128774  0.13772460    -0.07600
C552        C  0.40186448  0.43371944  0.10571646     0.13200
C553        C  0.36683077  0.42179697  0.07961289    -0.21100
C554        C  0.33408736  0.43602419  0.08409291    -0.07600
C555        C  0.33906675  0.46640183  0.11441526     0.13200
C556        C  0.30744791  0.48604966  0.12026801    -0.24500
H557        H  0.37675573  0.50036430  0.16426015     0.14500
H558        H  0.36404088  0.39953963  0.05613332     0.14500
C559        C  0.43337181  0.41406080  0.09924312    -0.24400
H560        H  0.27298193  0.45790509  0.12753446     0.04700
H561        H  0.30638161  0.50385563  0.09452210     0.08000
H562        H  0.31843193  0.51130695  0.14379908     0.08000
H563        H  0.42852575  0.39083238  0.12265452     0.08000
H564        H  0.46944672  0.44171898  0.09729291     0.08000
H565        H  0.42575059  0.39349502  0.07286520     0.04700
C566        C  0.28830095  0.41890914  0.35013355    -0.21100
C567        C  0.30275809  0.45803773  0.37321019    -0.07600
C568        C  0.33664901  0.50093916  0.35905761     0.13200
C569        C  0.35908084  0.50218771  0.32506104    -0.21100
C570        C  0.34869247  0.46205350  0.30451020    -0.07600
C571        C  0.31050708  0.42023748  0.31598153     0.13200
C572        C  0.29396134  0.37622455  0.29384189    -0.24500
H573        H  0.26082476  0.38629187  0.35976312     0.14500
H574        H  0.38689742  0.53472623  0.31565648     0.14500
C575        C  0.35073340  0.54562450  0.37959950    -0.24400
H576        H  0.26205135  0.34800391  0.30605943     0.04700
H577        H  0.32009628  0.36490862  0.29395062     0.08000
H578        H  0.28647114  0.38132310  0.26453476     0.08000
H579        H  0.36701382  0.54638053  0.40669649     0.08000
H580        H  0.32035300  0.55015417  0.38462126     0.08000
H581        H  0.37592540  0.57547408  0.36308444     0.04700
C582        C  0.92927533  0.58639636  0.16353411    -0.21100
C583        C  0.91772809  0.54030122  0.16954889    -0.07600
C584        C  0.89874582  0.50861015  0.13929763     0.13200
C585        C  0.88990629  0.52354890  0.10503194    -0.21100
C586        C  0.90133896  0.56951830  0.09974049    -0.07600
C587        C  0.92212842  0.60136374  0.12911177     0.13200
C588        C  0.93580371  0.65124739  0.12442910    -0.24500
H589        H  0.94475701  0.61152165  0.18590114     0.14500
H590        H  0.87304399  0.49909033  0.08250874     0.14500
C591        C  0.88824982  0.45950040  0.14250770    -0.24400
H592        H  0.95306427  0.67194094  0.14978528     0.04700
H593        H  0.90511978  0.65485837  0.11928755     0.08000
H594        H  0.95986677  0.66552534  0.10025628     0.08000
H595        H  0.86303745  0.44235605  0.16555605     0.08000
H596        H  0.92010395  0.45820222  0.14809246     0.08000
H597        H  0.87380912  0.43986345  0.11611968     0.04700
C598        C  0.87936524  0.51756942  0.34078994    -0.21100
C599        C  0.92062027  0.52505252  0.35683533    -0.07600
C600        C  0.92979137  0.53928867  0.39481319     0.13200
C601        C  0.90043426  0.55135043  0.41390445    -0.21100
C602        C  0.85913543  0.54360250  0.39804093    -0.07600
C603        C  0.84771479  0.52517643  0.36153421     0.13200
C604        C  0.80322167  0.51521398  0.34408105    -0.24500
H605        H  0.87181908  0.50563679  0.31190932     0.14500
H606        H  0.90922411  0.56555691  0.44201992     0.14500
C607        C  0.96935753  0.54090860  0.41591567    -0.24400
H608        H  0.79965495  0.50065868  0.31526114     0.04700
H609        H  0.80165123  0.54750438  0.34220299     0.08000
H610        H  0.77423918  0.49007700  0.36150318     0.08000
H611        H  0.00233532  0.56382348  0.40197868     0.08000
H612        H  0.96514136  0.50587408  0.41726349     0.08000
H613        H  0.97103188  0.55338044  0.44528797     0.04700
C614        C  0.94059267  0.31256567  0.12151432    -0.21100
C615        C  0.89809883  0.30546767  0.10958103    -0.07600
C616        C  0.87396544  0.32238303  0.13146263     0.13200
C617        C  0.89352850  0.34709134  0.16444194    -0.21100
C618        C  0.93698278  0.35585742  0.17621156    -0.07600
C619        C  0.96036558  0.33709660  0.15469927     0.13200
C620        C  0.00623494  0.34276939  0.16561292    -0.24500
H621        H  0.95820787  0.29839554  0.10488066     0.14500
H622        H  0.87527856  0.36116423  0.18033708     0.14500
C623        C  0.82840306  0.31623289  0.11920811    -0.24400
H624        H  0.01704600  0.32287474  0.14679293     0.04700
H625        H  0.00437140  0.33025610  0.19468779     0.08000
H626        H  0.03306215  0.37920299  0.16345299     0.08000
H627        H  0.80252569  0.27932170  0.11832479     0.08000
H628        H  0.83226092  0.33120698  0.09090833     0.08000
H629        H  0.81537837  0.33369426  0.13863061     0.04700
C630        C  0.95373166  0.34113816  0.39706968    -0.21100
C631        C  0.90620194  0.31318326  0.39700370    -0.07600
C632        C  0.88161755  0.31279162  0.36470491     0.13200
C633        C  0.90480444  0.34338778  0.33504037    -0.21100
C634        C  0.95222873  0.37296182  0.33586587    -0.07600
C635        C  0.97717140  0.37031138  0.36690418     0.13200
C636        C  0.02810438  0.40010161  0.37032426    -0.24500
H637        H  0.97258767  0.34128411  0.42162179     0.14500
H638        H  0.88568568  0.34473498  0.31123777     0.14500
C639        C  0.83071730  0.28159696  0.36177219    -0.24400
H640        H  0.04172755  0.39114315  0.39518154     0.04700
H641        H  0.03626585  0.43610832  0.37438641     0.08000
H642        H  0.04577064  0.39593970  0.34518047     0.08000
H643        H  0.81268408  0.28825588  0.38540537     0.08000
H644        H  0.82290658  0.24527473  0.36239291     0.08000
H645        H  0.81705279  0.28676326  0.33511119     0.04700
C646        C  0.13209425  0.48654980  0.14083565    -0.21100
C647        C  0.08671302  0.47606042  0.13600629    -0.07600
C648        C  0.06470113  0.45629877  0.10135573     0.13200
C649        C  0.08662132  0.44162274  0.07534037    -0.21100
C650        C  0.12969161  0.44643309  0.08270446    -0.07600
C651        C  0.15394004  0.47193237  0.11489002     0.13200
C652        C  0.20193782  0.48242830  0.12369195    -0.24500
H653        H  0.14975720  0.50363097  0.16640626     0.14500
H654        H  0.06901104  0.42448936  0.04976771     0.14500
C655        C  0.01791806  0.44911661  0.09138084    -0.24400
H656        H  0.21553831  0.50434490  0.14918895     0.04700
H657        H  0.22531564  0.50108848  0.09995245     0.08000
H658        H  0.20191280  0.44987874  0.12930106     0.08000
H659        H  0.01716161  0.48184672  0.09472308     0.08000
H660        H  0.99111893  0.42218014  0.10925000     0.08000
H661        H  0.00901142  0.43756333  0.06174619     0.04700
C662        C  0.13818051  0.46471815  0.32593145    -0.21100
C663        C  0.12367654  0.49645396  0.33598913    -0.07600
C664        C  0.13741162  0.52033495  0.37045531     0.13200
C665        C  0.16423238  0.51080444  0.39462310    -0.21100
C666        C  0.17572662  0.47638102  0.38600140    -0.07600
C667        C  0.16311315  0.45349510  0.35096150     0.13200
C668        C  0.17567067  0.41736744  0.33987086    -0.24500
H669        H  0.12728485  0.44636092  0.29938589     0.14500
H670        H  0.17398568  0.52856857  0.42147718     0.14500
C671        C  0.12371979  0.55559511  0.38192903    -0.24400
H672        H  0.16436233  0.40420770  0.31091442     0.04700
H673        H  0.15922470  0.38784100  0.35927199     0.08000
H674        H  0.21331647  0.43228439  0.34075110     0.08000
H675        H  0.13898498  0.57215612  0.40920714     0.08000
H676        H  0.13579752  0.58270082  0.36035854     0.08000
H677        H  0.08599354  0.53942573  0.38493531     0.04700
C678        C  0.04724118  0.61581203  0.12552244    -0.21100
C679        C  0.07204734  0.61601683  0.15695018    -0.07600
C680        C  0.11733506  0.65218164  0.16168536     0.13200
C681        C  0.13602192  0.68764158  0.13513186    -0.21100
C682        C  0.11072759  0.68766962  0.10394068    -0.07600
C683        C  0.06556418  0.65082745  0.09907805     0.13200
C684        C  0.03541373  0.64789624  0.06675437    -0.24500
H685        H  0.01243780  0.58832295  0.12192758     0.14500
H686        H  0.17081008  0.71523573  0.13853843     0.14500
C687        C  0.14650058  0.65317836  0.19390418    -0.24400
H688        H  0.00023523  0.61847609  0.06956753     0.04700
H689        H  0.04958615  0.64283032  0.03980879     0.08000
H690        H  0.03246448  0.67952872  0.06567820     0.08000
H691        H  0.14861116  0.62101859  0.19402552     0.08000
H692        H  0.13163303  0.65696971  0.22088770     0.08000
H693        H  0.18187010  0.68243582  0.19177073     0.04700
C694        C  0.05115600  0.64022544  0.36200710    -0.21100
C695        C  0.08079992  0.63684350  0.33560548    -0.07600
C696        C  0.12823943  0.66158019  0.34066634     0.13200
C697        C  0.14494770  0.68561653  0.37447243    -0.21100
C698        C  0.11484108  0.68443201  0.40310424    -0.07600
C699        C  0.06734070  0.66255175  0.39637702     0.13200
C700        C  0.03344768  0.66193450  0.42508040    -0.24500
H701        H  0.01465358  0.62235907  0.35680656     0.14500
H702        H  0.18152825  0.70364953  0.37917566     0.14500
C703        C  0.16079801  0.66308438  0.31034723    -0.24400
H704        H  0.99824598  0.64611342  0.41368805     0.04700
H705        H  0.04348674  0.69744949  0.43372096     0.08000
H706        H  0.03234939  0.64182250  0.45000041     0.08000
H707        H  0.15578854  0.67863587  0.28474483     0.08000
H708        H  0.15444050  0.62797486  0.30346735     0.08000
H709        H  0.19699958  0.68406118  0.31904778     0.04700
C710        C  0.33103057  0.83968047  0.12495453    -0.21100
C711        C  0.29004214  0.84129107  0.12624193    -0.07600
C712        C  0.27756685  0.85613867  0.15984794     0.13200
C713        C  0.30981961  0.87624523  0.18844860    -0.21100
C714        C  0.35341169  0.88070952  0.18466155    -0.07600
C715        C  0.36317025  0.85944135  0.15366849     0.13200
C716        C  0.40852892  0.86047820  0.14883454    -0.24500
H717        H  0.33967997  0.82638235  0.09999946     0.14500
H718        H  0.30200184  0.89112695  0.21285656     0.14500
C719        C  0.23091204  0.85187965  0.16577045    -0.24400
H720        H  0.40978776  0.84218165  0.12287710     0.04700
H721        H  0.41422762  0.84339501  0.17305778     0.08000
H722        H  0.43667269  0.89638936  0.14680197     0.08000
H723        H  0.20398584  0.81612191  0.15978132     0.08000
H724        H  0.22654673  0.87603923  0.14748512     0.08000
H725        H  0.22591782  0.86015401  0.19524987     0.04700
C726        C  0.31338921  0.90030807  0.38526097    -0.21100
C727        C  0.31123234  0.85967454  0.39790393    -0.07600
C728        C  0.33832592  0.84353200  0.37874807     0.13200
C729        C  0.36661519  0.86837386  0.34819759    -0.21100
C730        C  0.36923461  0.90930102  0.33557792    -0.07600
C731        C  0.34155364  0.92513392  0.35452172     0.13200
C732        C  0.34229841  0.96900095  0.34379262    -0.24500
H733        H  0.29317086  0.91308527  0.39989175     0.14500
H734        H  0.38768294  0.85599842  0.33446287     0.14500
C735        C  0.33958454  0.80121549  0.39131482    -0.24400
H736        H  0.31883685  0.97593935  0.36170132     0.04700
H737        H  0.33110328  0.96671198  0.31425492     0.08000
H738        H  0.37727911  0.99840375  0.34726509     0.08000
H739        H  0.30542090  0.77055766  0.38783815     0.08000
H740        H  0.34998711  0.80503113  0.42123153     0.08000
H741        H  0.36438691  0.79511903  0.37450809     0.04700
C742        C  0.59855835  0.93489089  0.15469990    -0.21100
C743        C  0.56033027  0.90573473  0.17699953    -0.07600
C744        C  0.53417296  0.85906696  0.16685166     0.13200
C745        C  0.54461087  0.84393244  0.13304708    -0.21100
C746        C  0.58155935  0.87379733  0.11013479    -0.07600
C747        C  0.60993229  0.91926249  0.12189580     0.13200
C748        C  0.65375026  0.95040891  0.10142917    -0.24500
H749        H  0.61971912  0.97055768  0.16263355     0.14500
H750        H  0.52426108  0.80821168  0.12485721     0.14500
C751        C  0.49681495  0.82394011  0.19143950    -0.24400
H752        H  0.67193750  0.98508032  0.11450697     0.04700
H753        H  0.64672799  0.95416957  0.07178200     0.08000
H754        H  0.67660835  0.93524531  0.10223319     0.08000
H755        H  0.46366398  0.80914507  0.17662060     0.08000
H756        H  0.49346793  0.83786322  0.21901429     0.08000
H757        H  0.50458643  0.79591306  0.19734879     0.04700
C758        C  0.50658241  0.88889102  0.37375736    -0.21100
C759        C  0.54438993  0.92184264  0.35374838    -0.07600
C760        C  0.58867016  0.92848489  0.36091950     0.13200
C761        C  0.59397739  0.90328326  0.38969119    -0.21100
C762        C  0.55628384  0.87229752  0.41104148    -0.07600
C763        C  0.51202740  0.86429964  0.40257273     0.13200
C764        C  0.47081726  0.83205902  0.42527952    -0.24500
H765        H  0.47273403  0.88393299  0.36792251     0.14500
H766        H  0.62793196  0.90943930  0.39669781     0.14500
C767        C  0.63120051  0.96343428  0.34082750    -0.24400
H768        H  0.43888855  0.83028942  0.41490941     0.04700
H769        H  0.47545456  0.84445807  0.45477364     0.08000
H770        H  0.46662918  0.79705077  0.42374789     0.08000
H771        H  0.65498921  0.98863073  0.36151798     0.08000
H772        H  0.62451109  0.98287087  0.31931884     0.08000
H773        H  0.64835116  0.94592137  0.32673425     0.04700
C774        C  0.60821215  0.04130947  0.11619723    -0.21100
C775        C  0.60931437  0.06352070  0.15031523    -0.07600
C776        C  0.64636926  0.10815545  0.15701035     0.13200
C777        C  0.68246196  0.12744444  0.13071061    -0.21100
C778        C  0.68252274  0.10385384  0.09768339    -0.07600
C779        C  0.64395756  0.06055898  0.08987518     0.13200
C780        C  0.64000781  0.03334168  0.05445794    -0.24500
H781        H  0.57976402  0.00753531  0.11042793     0.14500
H782        H  0.71100663  0.16129256  0.13612365     0.14500
C783        C  0.64855445  0.13605150  0.19143771    -0.24400
H784        H  0.60870042  0.99920301  0.05454637     0.04700
H785        H  0.67001849  0.02783205  0.05154648     0.08000
H786        H  0.63808229  0.05166465  0.02943643     0.08000
H787        H  0.65239455  0.11970655  0.21697021     0.08000
H788        H  0.61707917  0.13916243  0.19376873     0.08000
H789        H  0.67825575  0.17126779  0.19030641     0.04700
C790        C  0.70440822  0.12005490  0.36374759    -0.21100
C791        C  0.68387201  0.11112140  0.39964400    -0.07600
C792        C  0.63556872  0.08402675  0.40288918     0.13200
C793        C  0.60983235  0.06770098  0.37043732    -0.21100
C794        C  0.62956027  0.07916483  0.33465029    -0.07600
C795        C  0.67788129  0.10373915  0.33109764     0.13200
C796        C  0.70182875  0.11266920  0.29344175    -0.24500
H797        H  0.74132967  0.13980995  0.36119007     0.14500
H798        H  0.57363413  0.04426838  0.37320274     0.14500
C799        C  0.60971582  0.07219661  0.43997071    -0.24400
H800        H  0.73954058  0.13367979  0.29617920     0.04700
H801        H  0.69006166  0.13149781  0.27532306     0.08000
H802        H  0.69472266  0.07980805  0.27976094     0.08000
H803        H  0.61672959  0.10404042  0.45545617     0.08000
H804        H  0.61949777  0.05082112  0.45701230     0.08000
H805        H  0.57208692  0.05216159  0.43615117     0.04700
C806        C  0.47529729  0.11905210  0.10161594    -0.21100
C807        C  0.43547275  0.09532667  0.08036799    -0.07600
C808        C  0.40817325  0.04726578  0.08430567     0.13200
C809        C  0.41976003  0.02482286  0.11151950    -0.21100
C810        C  0.45766451  0.04933810  0.13480266    -0.07600
C811        C  0.48700430  0.09657002  0.12859817     0.13200
C812        C  0.53099704  0.12323698  0.14982982    -0.24500
H813        H  0.49689310  0.15560256  0.09753884     0.14500
H814        H  0.39760011  0.98845798  0.11615352     0.14500
C815        C  0.36530177  0.01995399  0.06183285    -0.24400
H816        H  0.55098159  0.15904179  0.13966279     0.04700
H817        H  0.55241987  0.10657411  0.14573145     0.08000
H818        H  0.52399397  0.12478450  0.18023433     0.08000
H819        H  0.37398568  0.02173836  0.03144112     0.08000
H820        H  0.34159255  0.03385252  0.06684920     0.08000
H821        H  0.34714434  0.98320310  0.06982068     0.04700
C822        C  0.43279008  0.09850188  0.32733682    -0.21100
C823        C  0.47119067  0.09281628  0.33262221    -0.07600
C824        C  0.50414026  0.11980275  0.35936279     0.13200
C825        C  0.49740035  0.15090022  0.38115127    -0.21100
C826        C  0.45772965  0.15467491  0.37768060    -0.07600
C827        C  0.42516958  0.12872017  0.35019232     0.13200
C828        C  0.38303230  0.13316688  0.34467046    -0.24500
H829        H  0.40798738  0.07808775  0.30613744     0.14500
H830        H  0.52224379  0.17061303  0.40251725     0.14500
C831        C  0.54572345  0.11513392  0.36579908    -0.24400
H832        H  0.36221442  0.11151060  0.32088800     0.04700
H833        H  0.39309852  0.16935809  0.33848329     0.08000
H834        H  0.36125408  0.12218150  0.37038526     0.08000
H835        H  0.56574281  0.12167911  0.33926209     0.08000
H836        H  0.53397559  0.07999755  0.37590227     0.08000
H837        H  0.56847112  0.13949695  0.38752251     0.04700
O838        O  0.43523306  0.92984118  0.79812505    -0.80900
O839        O  0.50609604  0.91772423  0.71676965    -0.80900
O840        O  0.39265232  0.95526837  0.71329889    -0.80900
O841        O  0.54966450  0.95987842  0.79468372    -0.80900
O842        O  0.42158588  0.90953210  0.71695691    -0.81000
O843        O  0.50980682  0.96856431  0.84251086    -0.80900
O844        O  0.57677516  0.96823532  0.71864715    -0.80900
O845        O  0.40194901  0.97126399  0.78891222    -0.80900
C846        C  0.40195072  0.93726039  0.80470161     1.08800
C847        C  0.54684280  0.93003694  0.70706722     1.08700
C848        C  0.38874540  0.91565733  0.70886511     1.08800
C849        C  0.53521300  0.95314114  0.82939674     1.08700
O850        O  0.55371331  0.04745961  0.80623296    -0.80900
O851        O  0.45435188  0.98659302  0.66463091    -0.81000
O852        O  0.47580896  0.06375777  0.77436699    -0.80900
O853        O  0.57859090  0.05095673  0.71265360    -0.80900
O854        O  0.53944181  0.99942048  0.66944630    -0.81000
O855        O  0.47230817  0.02379686  0.82377330    -0.80900
O856        O  0.60858260  0.04605472  0.77562815    -0.80900
O857        O  0.46790134  0.04651830  0.69962571    -0.80900
Co858      Co  0.49604412  0.98591492  0.79729258     1.51500
Co859      Co  0.48030337  0.95474951  0.69560910     1.51700
Co860      Co  0.43840686  0.00921746  0.74398064     1.51600
Co861      Co  0.55509710  0.00217691  0.74978471     1.51500
O862        O  0.49080665  0.99402107  0.74355518    -1.42800
C863        C  0.59599706  0.05973865  0.80331537     1.08700
C864        C  0.46252606  0.02783212  0.66772965     1.08800
C865        C  0.47427264  0.05933194  0.80946093     1.08700
C866        C  0.57271796  0.03854806  0.67859696     1.08700
O867        O  0.98187551  0.51204287  0.84481709    -0.80900
O868        O  0.94021320  0.41766495  0.71531503    -0.80900
O869        O  0.96615018  0.56652819  0.72090053    -0.80900
O870        O  0.00761631  0.41605232  0.79105313    -0.80900
O871        O  0.92910755  0.49419548  0.71355042    -0.81000
O872        O  0.95527525  0.43699263  0.80021681    -0.80900
O873        O  0.99739015  0.40386115  0.71501558    -0.80900
O874        O  0.95657371  0.53495537  0.79648655    -0.80900
C875        C  0.95509576  0.52505827  0.83182090     1.08800
C876        C  0.95638251  0.39171857  0.70650941     1.08700
C877        C  0.93535755  0.53313849  0.70394815     1.08800
C878        C  0.97029720  0.40941613  0.80660903     1.08700
O879        O  0.04793276  0.48924380  0.82609207    -0.80900
O880        O  0.01492870  0.54181338  0.67233646    -0.81000
O881        O  0.03523606  0.60814988  0.78309339    -0.80900
O882        O  0.07903403  0.48961689  0.70242587    -0.80900
O883        O  0.01856980  0.46424214  0.66652791    -0.81000
O884        O  0.05956430  0.56509678  0.80537222    -0.80900
O885        O  0.09310948  0.50145145  0.77793401    -0.80900
O886        O  0.05569890  0.58780576  0.71864083    -0.80900
Co887      Co  0.00380652  0.50208682  0.79888048     1.51500
Co888      Co  0.97695113  0.47981870  0.69576505     1.51700
Co889      Co  0.00446723  0.55340611  0.75324317     1.51600
Co890      Co  0.04327597  0.45605994  0.74666729     1.51500
O891        O  0.01375028  0.49729449  0.74511901    -1.42800
C892        C  0.08648219  0.49748011  0.81288085     1.08700
C893        C  0.04802638  0.57973197  0.68387257     1.08800
C894        C  0.06005708  0.60308349  0.80553649     1.08700
C895        C  0.06037557  0.47669673  0.67072471     1.08700
O896        O  0.45527423  0.46309139  0.82768068    -0.80900
O897        O  0.58717560  0.50070030  0.71560741    -0.80900
O898        O  0.43278536  0.39948921  0.71431919    -0.80900
O899        O  0.58712116  0.54717176  0.79020903    -0.80900
O900        O  0.50484171  0.41732901  0.71435162    -0.81000
O901        O  0.53590433  0.53797813  0.83152949    -0.80900
O902        O  0.60505443  0.57238908  0.71962801    -0.80900
O903        O  0.44813316  0.41467635  0.78445662    -0.80900
C904        C  0.44751588  0.42378285  0.81850591     1.08800
C905        C  0.61456007  0.54208400  0.70784735     1.08700
C906        C  0.46379380  0.38926715  0.70601370     1.08800
C907        C  0.57554604  0.54456881  0.82410224     1.08700
O908        O  0.50726951  0.58617429  0.78059148    -0.80900
O909        O  0.46799079  0.45990542  0.66664714    -0.81000
O910        O  0.37881450  0.42733099  0.75857028    -0.80900
O911        O  0.52237682  0.57491869  0.71104528    -0.80900
O912        O  0.54401650  0.53898068  0.67044372    -0.81000
O913        O  0.42042782  0.50068950  0.77296964    -0.80900
O914        O  0.58107125  0.62231574  0.76936851    -0.80900
O915        O  0.43225026  0.48500312  0.70294737    -0.80900
Co916      Co  0.48229958  0.51953491  0.79739294     1.51500
Co917      Co  0.52542277  0.47979575  0.69583721     1.51700
Co918      Co  0.44206125  0.45330758  0.74626320     1.51600
Co919      Co  0.55179912  0.55991579  0.75264769     1.51500
O920        O  0.50774813  0.49492347  0.74830110    -1.42800
C921        C  0.54716704  0.62088253  0.78702835     1.08700
C922        C  0.43708162  0.47087637  0.67089630     1.08800
C923        C  0.38273062  0.46222798  0.77670047     1.08700
C924        C  0.53394424  0.57007526  0.67790431     1.08700
O925        O  0.84220785  0.59055377  0.93868238    -0.80900
O926        O  0.78683335  0.65256414  0.48607256    -0.80900
O927        O  0.73629225  0.55693913  0.94209875    -0.80900
O928        O  0.88815761  0.66974206  0.54474954    -0.80900
O929        O  0.69755931  0.58313197  0.97487448    -0.81000
O930        O  0.88679815  0.65953690  0.98606420    -0.80900
O931        O  0.80482650  0.66861689  0.54550444    -0.80900
O932        O  0.79477310  0.51849651  0.93961295    -0.80900
C933        C  0.82800107  0.55191910  0.92391443     1.08800
C934        C  0.79501493  0.67937078  0.51398328     1.08700
C935        C  0.70397586  0.56806846  0.94391464     1.08800
C936        C  0.90692797  0.68380057  0.51257814     1.08700
O937        O  0.89949075  0.59913931  0.53638162    -0.80900
O938        O  0.70372417  0.51897935  0.51167514    -0.81000
O939        O  0.78008472  0.49288157  0.01604692    -0.80900
O940        O  0.76397110  0.57638491  0.57945386    -0.80900
O941        O  0.72597977  0.59926179  0.54585326    -0.81000
O942        O  0.84981482  0.52723393  0.99184975    -0.80900
O943        O  0.84202325  0.57759998  0.57610256    -0.80900
O944        O  0.70983186  0.47289043  0.96850625    -0.80900
Co945      Co  0.86639384  0.59422593  0.98905066     1.51500
Co946      Co  0.74958787  0.58685561  0.49703982     1.51700
Co947      Co  0.76079137  0.52786536  0.98283543     1.51600
Co948      Co  0.82343445  0.62081322  0.55879254     1.51500
O949        O  0.80738358  0.58651621  0.50892049    -1.42800
C950        C  0.88030887  0.58188640  0.56772546     1.08700
C951        C  0.68707974  0.47867860  0.99469819     1.08800
C952        C  0.81679569  0.49237753  0.00745665     1.08700
C953        C  0.73050036  0.58289114  0.57625419     1.08700
O954        O  0.69553586  0.11514745  0.96541087    -0.80900
O955        O  0.88657329  0.22542644  0.48246048    -0.80900
O956        O  0.84490857  0.24933032  0.93211173    -0.80900
O957        O  0.79918721  0.11740078  0.53491072    -0.80900
O958        O  0.89788923  0.30803435  0.96495695    -0.81000
O959        O  0.77717941  0.12059334  0.97820403    -0.80900
O960        O  0.88632784  0.20203479  0.53892279    -0.80900
O961        O  0.75331971  0.16519767  0.93074949    -0.80900
C962        C  0.71149228  0.13183853  0.93340857     1.08800
C963        C  0.90801884  0.21832242  0.50811953     1.08700
C964        C  0.88088263  0.28965691  0.93312866     1.08800
C965        C  0.78346106  0.09802872  0.50329915     1.08700
O966        O  0.71785954  0.11385225  0.53763219    -0.80900
O967        O  0.83392322  0.30417933  0.51676019    -0.81000
O968        O  0.71877054  0.21882495  0.96774500    -0.80900
O969        O  0.83969568  0.23955212  0.58332088    -0.80900
O970        O  0.89427150  0.28562797  0.54440930    -0.81000
O971        O  0.70423743  0.17834384  0.01702103    -0.80900
O972        O  0.75918387  0.16117396  0.58146541    -0.80900
O973        O  0.79966150  0.29468100  0.96692738    -0.80900
Co974      Co  0.74417226  0.15442940  0.99553468     1.51500
Co975      Co  0.85644713  0.26232176  0.49748674     1.51700
Co976      Co  0.78193162  0.22881199  0.95680949     1.51600
Co977      Co  0.81974635  0.18178763  0.55567026     1.51500
O978        O  0.79917928  0.20958409  0.51232521    -1.42800
C979        C  0.72156356  0.12779982  0.57097808     1.08700
C980        C  0.81667269  0.31806051  0.99605135     1.08800
C981        C  0.69259352  0.19977744  0.99523561     1.08700
C982        C  0.87638579  0.27612154  0.57716787     1.08700
O983        O  0.27604256  0.86001036  0.95829178    -0.80900
O984        O  0.11903555  0.77146598  0.48219489    -0.80900
O985        O  0.17328609  0.74046951  0.94094111    -0.80900
O986        O  0.20595735  0.88101269  0.53069531    -0.80900
O987        O  0.11208794  0.68707420  0.97049141    -0.81000
O988        O  0.27643293  0.89636726  0.02536314    -0.80900
O989        O  0.12309614  0.80117589  0.53817669    -0.80900
O990        O  0.26390342  0.79501565  0.93571640    -0.80900
C991        C  0.28064379  0.83749165  0.93132984     1.08800
C992        C  0.10122107  0.78389474  0.50853784     1.08700
C993        C  0.13373802  0.70408859  0.94005380     1.08800
C994        C  0.24814535  0.90861570  0.52451529     1.08700
O995        O  0.26991161  0.81231939  0.56509118    -0.80900
O996        O  0.18363259  0.70031909  0.51271895    -0.81000
O997        O  0.28653149  0.77758066  0.00761835    -0.80900
O998        O  0.16601060  0.76461084  0.58470352    -0.80900
O999        O  0.11836848  0.71875787  0.54237118    -0.81000
O1000       O  0.33301436  0.85350602  0.00828754    -0.80900
O1001       O  0.24067609  0.85222217  0.58637084    -0.80900
O1002       O  0.22787221  0.70723356  0.96329624    -0.80900
Co1003     Co  0.27007331  0.83505116  0.01036224     1.51500
Co1004     Co  0.15558290  0.74108177  0.49632788     1.51700
Co1005     Co  0.22527352  0.76040087  0.97952284     1.51600
Co1006     Co  0.18520550  0.82271673  0.55648874     1.51500
O1007       O  0.20746221  0.80264054  0.50925509    -1.42800
C1008       C  0.26383033  0.83324971  0.59218694     1.08700
C1009       C  0.20428020  0.68394136  0.99122569     1.08800
C1010       C  0.32766526  0.81304742  0.00970069     1.08700
C1011       C  0.13311903  0.72587199  0.57545297     1.08700
O1012       O  0.52248873  0.80865513  0.01868407    -0.80900
O1013       O  0.62136334  0.71046093  0.53753244    -0.80900
O1014       O  0.51217274  0.70960762  0.01940782    -0.80900
O1015       O  0.59146844  0.81884071  0.58043296    -0.80900
O1016       O  0.54972695  0.67902987  0.49015632    -0.81000
O1017       O  0.60140595  0.87437485  0.54467288    -0.80900
O1018       O  0.60273790  0.74893151  0.57818305    -0.87200
O1019       O  0.47973828  0.75507330  0.97756581    -0.80900
C1020       C  0.48293529  0.78276630  0.00353754     1.08800
C1021       C  0.60539651  0.71402708  0.56941393     1.08700
C1022       C  0.51339361  0.67452163  0.00661666     1.08800
C1023       C  0.59103691  0.85553124  0.57633300     1.08700
O1024       O  0.65566925  0.87405040  0.98197827    -0.80900
O1025       O  0.60593688  0.75270464  0.93360816    -0.81000
O1026       O  0.55931736  0.81597859  0.94571601    -0.80900
O1027       O  0.69106450  0.79559274  0.54317289    -0.80900
O1028       O  0.67814456  0.78257191  0.48363438    -0.81000
O1029       O  0.57850764  0.88137125  0.97599358    -0.80900
O1030       O  0.67979802  0.87518684  0.53950928    -0.80900
O1031       O  0.53304968  0.72629317  0.94048362    -0.80900
Co1032     Co  0.59063271  0.83760454  0.99821833     1.51500
Co1033     Co  0.61427438  0.73430093  0.48727217     1.51700
Co1034     Co  0.53901290  0.76469182  0.98655678     1.51600
Co1035     Co  0.63915001  0.80866969  0.55718245     1.51500
O1036       O  0.60143886  0.78384573  0.50924997    -1.42800
C1037       C  0.68383792  0.89548180  0.50817882     1.08700
C1038       C  0.56642409  0.73169416  0.91979627     1.08800
C1039       C  0.56546308  0.85733151  0.94630068     1.08700
C1040       C  0.70235811  0.78617878  0.51129592     1.08700
O1041       O  0.17807711  0.41976171  0.92438610    -0.80900
O1042       O  0.22662600  0.33860333  0.47395717    -0.80900
O1043       O  0.29444777  0.48386327  0.93293188    -0.80900
O1044       O  0.13367949  0.33280831  0.53008551    -0.80900
O1045       O  0.25939998  0.40985711  0.92428742    -0.81000
O1046       O  0.13311918  0.34341913  0.97064625    -0.80900
O1047       O  0.21719955  0.33104151  0.53402347    -0.80900
O1048       O  0.22240923  0.49196824  0.93715553    -0.80900
C1049       C  0.19455587  0.46116000  0.91534161     1.08800
C1050       C  0.22478010  0.31653765  0.50291010     1.08700
C1051       C  0.28247562  0.44957313  0.91105315     1.08800
C1052       C  0.11241268  0.32082814  0.49866955     1.08700
O1053       O  0.12440201  0.40137210  0.52645326    -0.80900
O1054       O  0.33371663  0.46587138  0.48067607    -0.81000
O1055       O  0.22933421  0.50370208  0.01904855    -0.80900
O1056       O  0.26009462  0.42342362  0.56564456    -0.80900
O1057       O  0.29543427  0.39762472  0.52922458    -0.81000
O1058       O  0.16760363  0.47578083  0.98545001    -0.80900
O1059       O  0.18320586  0.42581405  0.56283239    -0.80900
O1060       O  0.30814034  0.49943051  0.01575238    -0.80900
Co1061     Co  0.15687580  0.41005410  0.97713656     1.51500
Co1062     Co  0.27399251  0.40355846  0.47754933     1.51700
Co1063     Co  0.26088096  0.48935192  0.97904273     1.51600
Co1064     Co  0.20037392  0.38151523  0.54433501     1.51500
O1065       O  0.22257690  0.42014286  0.49430454    -1.42800
C1066       C  0.14382286  0.41922091  0.55705624     1.08700
C1067       C  0.34187760  0.49857503  0.00070247     1.08800
C1068       C  0.19694372  0.50791292  0.00611902     1.08700
C1069       C  0.29443794  0.41872765  0.55900598     1.08700
O1070       O  0.48067853  0.16143402  0.97846299    -0.80900
O1071       O  0.40676232  0.28267440  0.54401718    -0.80900
O1072       O  0.51642736  0.30435776  0.96317941    -0.80900
O1073       O  0.42744401  0.16149341  0.56827766    -0.80900
O1074       O  0.48273614  0.30282532  0.51242397    -0.81000
O1075       O  0.41231461  0.11163907  0.52206143    -0.80900
O1076       O  0.42787610  0.24145235  0.57635131    -0.80900
O1077       O  0.51564696  0.23499047  0.99340587    -0.80900
C1078       C  0.51672028  0.19792771  0.98925135     1.08800
C1079       C  0.42204281  0.27560683  0.57425175     1.08700
C1080       C  0.51607068  0.32231259  0.99352961     1.08800
C1081       C  0.42653938  0.12578290  0.55493201     1.08700
O1082       O  0.34629715  0.12212824  0.97577854    -0.80900
O1083       O  0.42125658  0.30967839  0.96973344    -0.81000
O1084       O  0.48422386  0.21560089  0.92153292    -0.80900
O1085       O  0.33767546  0.20364742  0.54012687    -0.80900
O1086       O  0.35383980  0.22336975  0.48128337    -0.81000
O1087       O  0.41341871  0.16739869  0.92597697    -0.80900
O1088       O  0.33903815  0.11989744  0.53591436    -0.80900
O1089       O  0.43786249  0.26667186  0.93166179    -0.80900
Co1090     Co  0.41215476  0.14376993  0.97724341     1.51500
Co1091     Co  0.41899760  0.26037193  0.49390065     1.51700
Co1092     Co  0.46957278  0.24144643  0.96514356     1.51600
Co1093     Co  0.38546983  0.18340547  0.55204562     1.51500
O1094       O  0.42319282  0.20459473  0.50306288    -1.42800
C1095       C  0.32742825  0.10104733  0.50381360     1.08700
C1096       C  0.42918268  0.29995594  0.93666591     1.08800
C1097       C  0.45041164  0.18202366  0.90799611     1.08700
C1098       C  0.32767059  0.21621013  0.50937791     1.08700
C1099       C  0.24592835  0.26353981  0.53674031    -0.21100
C1100       C  0.24186955  0.28180160  0.50235615    -0.07600
C1101       C  0.26003151  0.27111630  0.46960226     0.13200
C1102       C  0.28401470  0.24619520  0.47273529    -0.21100
C1103       C  0.29177513  0.23165003  0.50761805    -0.07600
C1104       C  0.27050304  0.23913665  0.53990728     0.13200
C1105       C  0.27500798  0.22357621  0.57836738    -0.24500
H1106       H  0.23185275  0.27056469  0.56202544     0.14500
H1107       H  0.29915773  0.24029605  0.44757587     0.14500
C1108       C  0.25623501  0.28716566  0.43105995    -0.24400
H1109       H  0.25502121  0.23081080  0.59999869     0.04700
H1110       H  0.31130156  0.24202844  0.58701230     0.08000
H1111       H  0.25731995  0.18161488  0.07555903     0.08000
H1112       H  0.27623300  0.32512664  0.42967159     0.08000
H1113       H  0.22355642  0.27810156  0.92258819     0.08000
H1114       H  0.27000321  0.27352887  0.40871425     0.04700
C1115       C  0.39615847  0.57193445  0.03417412    -0.21100
C1116       C  0.38922798  0.53976238  0.00527570    -0.07600
C1117       C  0.42615528  0.55058116  0.97977335     0.13200
C1118       C  0.46646055  0.59371769  0.98211846    -0.21100
C1119       C  0.47204720  0.62706602  0.00948025    -0.07600
C1120       C  0.43682552  0.61469533  0.03694316     0.13200
C1121       C  0.43898110  0.64987920  0.56810961    -0.24500
H1122       H  0.36903021  0.56398354  0.05460664     0.14500
H1123       H  0.49332370  0.60201166  0.96132003     0.14500
C1124       C  0.42338766  0.51757550  0.94928965    -0.24400
H1125       H  0.40853102  0.63486915  0.58704836     0.04700
H1126       H  0.44379560  0.67785813  0.06056036     0.08000
H1127       H  0.46966172  0.65991559  0.58562690     0.08000
H1128       H  0.39498261  0.51034785  0.92993681     0.08000
H1129       H  0.41881186  0.48122664  0.47284140     0.08000
H1130       H  0.45534647  0.53147830  0.93217938     0.04700
C1131       C  0.28584178  0.97552088  0.98421221    -0.21100
C1132       C  0.26194345  0.95655989  0.51615174    -0.07600
C1133       C  0.24914873  0.98300478  0.53955711     0.13200
C1134       C  0.26695455  0.02971508  0.53197714    -0.21100
C1135       C  0.29764781  0.05069219  0.50192784    -0.07600
C1136       C  0.30386117  0.02217897  0.97644987     0.13200
C1137       C  0.33599307  0.04151677  0.94315761    -0.24500
H1138       H  0.29508907  0.95463231  0.96638631     0.14500
H1139       H  0.25951765  0.05071516  0.55126948     0.14500
C1140       C  0.21959144  0.96305035  0.57408689    -0.24400
H1141       H  0.33861597  0.01433345  0.92675009     0.04700
H1142       H  0.37372183  0.06706239  0.45201255     0.08000
H1143       H  0.32338098  0.05869212  0.92391850     0.08000
H1144       H  0.23559186  0.94870865  0.59286196     0.08000
H1145       H  0.18510190  0.93558550  0.56585149     0.08000
H1146       H  0.21515975  0.98932240  0.59028730     0.04700
C1147       C  0.16179093  0.55832271  0.01727104    -0.21100
C1148       C  0.19999718  0.55375463  0.00695529    -0.07600
C1149       C  0.24018462  0.59286848  0.99405420     0.13200
C1150       C  0.24019424  0.63448088  0.98987366    -0.21100
C1151       C  0.20213778  0.63936066  0.99977281    -0.07600
C1152       C  0.16270215  0.60093247  0.01476057     0.13200
C1153       C  0.12093700  0.60392141  0.02687320    -0.24500
H1154       H  0.13111511  0.52841503  0.02715499     0.14500
H1155       H  0.27032192  0.66353682  0.97833781     0.14500
C1156       C  0.28311813  0.59115424  0.98326755    -0.24400
H1157       H  0.09320208  0.57051552  0.03724185     0.04700
H1158       H  0.10749968  0.61428162  0.00277891     0.08000
H1159       H  0.10594632  0.61542806  0.51005540     0.08000
H1160       H  0.27622118  0.56559382  0.96080516     0.08000
H1161       H  0.27955563  0.57833493  0.55218783     0.08000
H1162       H  0.30978660  0.62419687  0.97186054     0.04700
C1163       C  0.44856764  0.83053793  0.02527437    -0.21100
C1164       C  0.44216364  0.78706903  0.01479007    -0.07600
C1165       C  0.39582023  0.74877396  0.49734542     0.13200
C1166       C  0.35998763  0.75900094  0.49961788    -0.21100
C1167       C  0.36759703  0.80530977  0.01519211    -0.07600
C1168       C  0.41205305  0.84030309  0.02542083     0.13200
C1169       C  0.42204132  0.88824146  0.03566997    -0.24500
H1170       H  0.48293120  0.85802559  0.03064565     0.14500
H1171       H  0.32757753  0.73541206  0.48696497     0.14500
C1172       C  0.38612497  0.70382227  0.47909951    -0.24400
H1173       H  0.45797077  0.90994987  0.04482404     0.04700
H1174       H  0.39944535  0.88719335  0.05925199     0.08000
H1175       H  0.41686751  0.90501737  0.01094503     0.08000
H1176       H  0.39666385  0.68454469  0.49799436     0.08000
H1177       H  0.37567548  0.69305536  0.97207166     0.08000
H1178       H  0.34915622  0.68170070  0.47322406     0.04700
C1179       C  0.77390247  0.02276608  0.52832258    -0.21100
C1180       C  0.76607330  0.04623995  0.49899508    -0.07600
C1181       C  0.73821752  0.01784205  0.96880024     0.13200
C1182       C  0.71468456  0.96931489  0.97171357    -0.21100
C1183       C  0.71801696  0.94654845  0.50341669    -0.07600
C1184       C  0.75133022  0.97403994  0.53058137     0.13200
C1185       C  0.76433241  0.95271707  0.56183099    -0.24500
H1186       H  0.79707933  0.04274486  0.55058104     0.14500
H1187       H  0.69076591  0.94935643  0.94987678     0.14500
C1188       C  0.72999415  0.03808507  0.93434952    -0.24400
H1189       H  0.79324134  0.97896951  0.57851934     0.04700
H1190       H  0.77832491  0.92894162  0.04709187     0.08000
H1191       H  0.73533901  0.93410968  0.58156019     0.08000
H1192       H  0.76287230  0.06468179  0.92215662     0.08000
H1193       H  0.70535737  0.05195899  0.44343636     0.08000
H1194       H  0.71229566  0.01174755  0.91218706     0.04700
C1195       C  0.03738557  0.26139184  0.52979517    -0.21100
C1196       C  0.06025058  0.28772321  0.49775065    -0.07600
C1197       C  0.03161873  0.28584545  0.46757940     0.13200
C1198       C  0.98300062  0.26081856  0.47119299    -0.21100
C1199       C  0.96010349  0.23668005  0.50405680    -0.07600
C1200       C  0.98861384  0.23602765  0.53324689     0.13200
C1201       C  0.96825848  0.20899587  0.56861652    -0.24500
H1202       H  0.05793717  0.26161432  0.55310217     0.14500
H1203       H  0.96257857  0.26177061  0.44826014     0.14500
C1204       C  0.05152710  0.31162156  0.43154507    -0.24400
H1205       H  0.99499191  0.21043783  0.58756097     0.04700
H1206       H  0.94441995  0.17347448  0.06275330     0.08000
H1207       H  0.94898756  0.22296682  0.58448304     0.08000
H1208       H  0.07471129  0.29789837  0.91871182     0.08000
H1209       H  0.07072427  0.34903824  0.43739449     0.08000
H1210       H  0.02462826  0.30556465  0.41084158     0.04700
C1211       C  0.64346112  0.23334755  0.97745041    -0.21100
C1212       C  0.64801552  0.20072589  0.99878892    -0.07600
C1213       C  0.61269819  0.17603541  0.51972343     0.13200
C1214       C  0.57019329  0.17514599  0.51563359    -0.21100
C1215       C  0.56192364  0.19923593  0.99295214    -0.07600
C1216       C  0.60159692  0.23327011  0.97440221     0.13200
C1217       C  0.59998775  0.26882563  0.94974523    -0.24500
H1218       H  0.67299005  0.25898282  0.96223984     0.14500
H1219       H  0.54096876  0.15198889  0.53255196     0.14500
C1220       C  0.61609714  0.14534586  0.54844118    -0.24400
H1221       H  0.63340964  0.29092244  0.93572376     0.04700
H1222       H  0.59146676  0.29166064  0.96686578     0.08000
H1223       H  0.57419650  0.25176474  0.92741003     0.08000
H1224       H  0.64330348  0.16624415  0.56890101     0.08000
H1225       H  0.62411719  0.12056661  0.53401969     0.08000
H1226       H  0.58359393  0.12559483  0.56444617     0.04700
C1227       C  0.02797834  0.75907167  0.47478057    -0.21100
C1228       C  0.05188856  0.77142625  0.50863159    -0.07600
C1229       C  0.02659052  0.76531549  0.54287040     0.13200
C1230       C  0.97869871  0.74161976  0.54219660    -0.21100
C1231       C  0.95492890  0.72206377  0.50901123    -0.07600
C1232       C  0.97989677  0.73388980  0.47432124     0.13200
C1233       C  0.95703441  0.71880458  0.43658832    -0.24500
H1234       H  0.04713070  0.76653781  0.44857211     0.14500
H1235       H  0.95980423  0.73487764  0.56850636     0.14500
C1236       C  0.04863045  0.78040278  0.58102332    -0.24400
H1237       H  0.98170129  0.73512102  0.41301690     0.04700
H1238       H  0.92761212  0.73019711  0.93698893     0.08000
H1239       H  0.94226998  0.68121197  0.43287642     0.08000
H1240       H  0.07153263  0.81945915  0.08163251     0.08000
H1241       H  0.06696856  0.76145141  0.58817865     0.08000
H1242       H  0.02307250  0.77342204  0.60385183     0.04700
C1243       C  0.76215911  0.77154613  0.53989768    -0.21100
C1244       C  0.73675014  0.76957102  0.50805174    -0.07600
C1245       C  0.73984273  0.74552413  0.47566685     0.13200
C1246       C  0.76358710  0.72069003  0.47770836    -0.21100
C1247       C  0.78387088  0.71773291  0.51111089    -0.07600
C1248       C  0.78586297  0.74633860  0.54183671     0.13200
C1249       C  0.81227272  0.75043335  0.57697130    -0.24500
H1250       H  0.76150055  0.79099926  0.56433137     0.14500
H1251       H  0.76322369  0.70051411  0.45344124     0.14500
C1252       C  0.71615050  0.74286945  0.43913313    -0.24400
H1253       H  0.81312969  0.77714958  0.59643081     0.04700
H1254       H  0.84843806  0.76102702  0.06786355     0.08000
H1255       H  0.79633107  0.71771549  0.59257894     0.08000
H1256       H  0.72966148  0.77834760  0.92678829     0.08000
H1257       H  0.67846316  0.72341110  0.44312180     0.08000
H1258       H  0.72472106  0.72475765  0.41667270     0.04700
C1259       C  0.79984103  0.37352371  0.52982883    -0.21100
C1260       C  0.81920780  0.36366003  0.00118339    -0.07600
C1261       C  0.84147750  0.39845713  0.97409868     0.13200
C1262       C  0.84111075  0.44009053  0.97824065    -0.21100
C1263       C  0.81931327  0.44885674  0.00885840    -0.07600
C1264       C  0.79993833  0.41570750  0.53443163     0.13200
C1265       C  0.78167635  0.42384148  0.57102180    -0.24500
H1266       H  0.78463129  0.34784710  0.55155812     0.14500
H1267       H  0.85704445  0.46565531  0.95648798     0.14500
C1268       C  0.86644417  0.39231542  0.94079352    -0.24400
H1269       H  0.80121135  0.42086951  0.59467768     0.04700
H1270       H  0.74337050  0.39594823  0.07635162     0.08000
H1271       H  0.78437475  0.45816580  0.57302463     0.08000
H1272       H  0.84210619  0.36381208  0.92275461     0.08000
H1273       H  0.89343380  0.38496282  0.95069863     0.08000
H1274       H  0.88325383  0.42353400  0.92312683     0.04700
C1275       C  0.59202549  0.36279595  0.02011075    -0.21100
C1276       C  0.55560770  0.36511976  0.00366650    -0.07600
C1277       C  0.56153442  0.40661614  0.98894763     0.13200
C1278       C  0.60481611  0.44516785  0.99008930    -0.21100
C1279       C  0.64194542  0.44173506  0.00364215    -0.07600
C1280       C  0.63571331  0.40080736  0.01960982     0.13200
C1281       C  0.67529171  0.39694536  0.03478272    -0.24500
H1282       H  0.58693902  0.33029173  0.03059135     0.14500
H1283       H  0.61059799  0.48025743  0.48001383     0.14500
C1284       C  0.52288594  0.41312923  0.47209055    -0.24400
H1285       H  0.66412344  0.36253156  0.04679417     0.04700
H1286       H  0.69307480  0.42174276  0.55331860     0.08000
H1287       H  0.70055587  0.40276378  0.01199543     0.08000
H1288       H  0.49408228  0.40147632  0.49257644     0.08000
H1289       H  0.51260327  0.38652077  0.94442519     0.08000
H1290       H  0.53333650  0.44896874  0.46413165     0.04700
C1291       C  0.48768725  0.36560544  0.64822900    -0.21100
C1292       C  0.45446779  0.35404819  0.67673441    -0.07600
C1293       C  0.41075447  0.31535437  0.67167545     0.13200
C1294       C  0.40079594  0.29100737  0.63741044    -0.21100
C1295       C  0.43278944  0.30534516  0.60776467    -0.07600
C1296       C  0.47714696  0.34230910  0.61374156     0.13200
C1297       C  0.51324662  0.35835590  0.58360705    -0.24500
H1298       H  0.52116775  0.39542324  0.65167467     0.14500
H1299       H  0.36784835  0.26063698  0.63372725     0.14500
C1300       C  0.37488853  0.29911140  0.70239238    -0.24400
H1301       H  0.54584951  0.38827809  0.59274539     0.04700
H1302       H  0.50090693  0.36906516  0.55899502     0.08000
H1303       H  0.52055746  0.33023259  0.57604653     0.08000
H1304       H  0.36324714  0.32457846  0.70775805     0.08000
H1305       H  0.38914598  0.29360784  0.72857142     0.08000
H1306       H  0.34429714  0.26623420  0.69468202     0.04700
C1307       C  0.45459456  0.35831169  0.84137555    -0.21100
C1308       C  0.43832403  0.38929082  0.84755314    -0.07600
C1309       C  0.41505762  0.38757075  0.88160993     0.13200
C1310       C  0.41039730  0.35610985  0.90915199    -0.21100
C1311       C  0.42919093  0.32696695  0.90406591    -0.07600
C1312       C  0.45104684  0.32756259  0.86925116     0.13200
C1313       C  0.47266619  0.29778482  0.86130121    -0.24500
H1314       H  0.47210433  0.35962290  0.81511313     0.14500
H1315       H  0.39304504  0.35529338  0.93537107     0.14500
C1316       C  0.39456109  0.41829067  0.88919872    -0.24400
H1317       H  0.48881386  0.30399615  0.83290880     0.04700
H1318       H  0.44624484  0.26107896  0.86239589     0.08000
H1319       H  0.49988963  0.30522888  0.88206395     0.08000
H1320       H  0.37093767  0.41422109  0.86627463     0.08000
H1321       H  0.42192038  0.45453276  0.89110390     0.08000
H1322       H  0.37481563  0.40982449  0.91605388     0.04700
C1323       C  0.65303054  0.58939272  0.65216980    -0.21100
C1324       C  0.64748790  0.55373505  0.67617717    -0.07600
C1325       C  0.66833766  0.52712908  0.66629292     0.13200
C1326       C  0.69419154  0.53702792  0.63295674    -0.21100
C1327       C  0.69891687  0.57205367  0.60867490    -0.07600
C1328       C  0.67762104  0.59830916  0.61826199     0.13200
C1329       C  0.68106014  0.63610673  0.59343134    -0.24500
H1330       H  0.63660368  0.60958651  0.65921221     0.14500
H1331       H  0.71073226  0.51696738  0.62565794     0.14500
C1332       C  0.66431396  0.48892890  0.69089272    -0.24400
H1333       H  0.66344136  0.65395257  0.60610175     0.04700
H1334       H  0.66489845  0.62164631  0.56590978     0.08000
H1335       H  0.71743366  0.66198173  0.58895276     0.08000
H1336       H  0.62840559  0.46068707  0.69176050     0.08000
H1337       H  0.67576779  0.50217353  0.71979678     0.08000
H1338       H  0.68573896  0.47419440  0.68011232     0.04700
C1339       C  0.63973455  0.57644052  0.91757130    -0.21100
C1340       C  0.67372279  0.56364178  0.91133110    -0.07600
C1341       C  0.67513595  0.54475781  0.87566515     0.13200
C1342       C  0.64303875  0.53923093  0.84787269    -0.21100
C1343       C  0.60845158  0.55092901  0.85473992    -0.07600
C1344       C  0.60721448  0.57014958  0.89026522     0.13200
C1345       C  0.57242711  0.58524629  0.89974574    -0.24500
H1346       H  0.63789688  0.59107351  0.94449726     0.14500
H1347       H  0.64451949  0.52488618  0.82068599     0.14500
C1348       C  0.71016621  0.53028617  0.86649238    -0.24400
H1349       H  0.57819326  0.60181671  0.92793365     0.04700
H1350       H  0.53749966  0.55518114  0.90004581     0.08000
H1351       H  0.57453973  0.61051585  0.87881592     0.08000
H1352       H  0.70582445  0.50246413  0.88564463     0.08000
H1353       H  0.74476569  0.56031038  0.86968275     0.08000
H1354       H  0.70708610  0.51725177  0.83716767     0.04700
C1355       C  0.57008708  0.65118278  0.66197935    -0.21100
C1356       C  0.54553238  0.60572837  0.64956160    -0.07600
C1357       C  0.54134986  0.59591826  0.61041791     0.13200
C1358       C  0.56277074  0.63191046  0.58482305    -0.21100
C1359       C  0.58813979  0.67724464  0.59734370    -0.07600
C1360       C  0.59182672  0.68710717  0.63655145     0.13200
C1361       C  0.62012975  0.73505696  0.65222164    -0.24500
H1362       H  0.57433008  0.65850378  0.69191481     0.14500
H1363       H  0.55898260  0.62471922  0.55486760     0.14500
C1364       C  0.51349988  0.54792796  0.59523537    -0.24400
H1365       H  0.62314208  0.73511019  0.68329569     0.04700
H1366       H  0.60400806  0.75635676  0.64596209     0.08000
H1367       H  0.65524769  0.75095501  0.64006884     0.08000
H1368       H  0.47812413  0.53300225  0.60641376     0.08000
H1369       H  0.52892989  0.52652432  0.60309253     0.08000
H1370       H  0.51161783  0.54727303  0.56404766     0.04700
C1371       C  0.51375801  0.65299933  0.83397188    -0.21100
C1372       C  0.55307278  0.65629825  0.81607029    -0.07600
C1373       C  0.59657639  0.68913236  0.83000371     0.13200
C1374       C  0.59917594  0.71533949  0.86207223    -0.21100
C1375       C  0.55990570  0.70927239  0.88185864    -0.07600
C1376       C  0.51641531  0.67854916  0.86666163     0.13200
C1377       C  0.47237293  0.67091066  0.88507821    -0.24500
H1378       H  0.48033804  0.62841467  0.82346811     0.14500
H1379       H  0.63264776  0.73917695  0.87294951     0.14500
C1380       C  0.64085477  0.69550608  0.81296349    -0.24400
H1381       H  0.47210986  0.70395719  0.88755778     0.04700
H1382       H  0.46858128  0.65562946  0.91330883     0.08000
H1383       H  0.44200269  0.64698031  0.86850068     0.08000
H1384       H  0.64311964  0.70499987  0.78290887     0.08000
H1385       H  0.64292274  0.66350333  0.81574164     0.08000
H1386       H  0.67122157  0.72320638  0.82726544     0.04700
C1387       C  0.37195055  0.47728704  0.64381637    -0.21100
C1388       C  0.40400135  0.46187945  0.63974444    -0.07600
C1389       C  0.40188510  0.43592470  0.60686586     0.13200
C1390       C  0.36668026  0.42401241  0.58098681    -0.21100
C1391       C  0.33288068  0.43668357  0.58636106    -0.07600
C1392       C  0.33672699  0.46546504  0.61763225     0.13200
C1393       C  0.30431225  0.48423677  0.62404628    -0.24500
H1394       H  0.37385785  0.49805632  0.66813848     0.14500
H1395       H  0.36477608  0.40308628  0.55677350     0.14500
C1396       C  0.43469977  0.41807376  0.59900603    -0.24400
H1397       H  0.26936202  0.45582365  0.62985418     0.04700
H1398       H  0.30424474  0.50366355  0.59900234     0.08000
H1399       H  0.31431259  0.50800932  0.64858389     0.08000
H1400       H  0.43075839  0.39400564  0.62147917     0.08000
H1401       H  0.47035390  0.44664322  0.59748225     0.08000
H1402       H  0.42773030  0.39884692  0.57196297     0.04700
C1403       C  0.28796528  0.41512458  0.85024965    -0.21100
C1404       C  0.29984674  0.45507261  0.87162291    -0.07600
C1405       C  0.33080260  0.49811180  0.85579445     0.13200
C1406       C  0.35402138  0.49924350  0.82229877    -0.21100
C1407       C  0.34716357  0.45879687  0.80403761    -0.07600
C1408       C  0.31111424  0.41623362  0.81675896     0.13200
C1409       C  0.29861708  0.37128566  0.79725793    -0.24500
H1410       H  0.26241593  0.38216852  0.86103164     0.14500
H1411       H  0.37992774  0.53213358  0.81166992     0.14500
C1412       C  0.34065588  0.54310172  0.87391646    -0.24400
H1413       H  0.26813035  0.34221126  0.81036952     0.04700
H1414       H  0.32720731  0.36353401  0.79913267     0.08000
H1415       H  0.29041563  0.37289177  0.76737580     0.08000
H1416       H  0.35841290  0.54804806  0.90103128     0.08000
H1417       H  0.30816448  0.54390263  0.87850540     0.08000
H1418       H  0.36317493  0.57273852  0.85591808     0.04700
C1419       C  0.93096345  0.58883359  0.66164812    -0.21100
C1420       C  0.91933002  0.54280297  0.66802082    -0.07600
C1421       C  0.90053222  0.51085428  0.63791962     0.13200
C1422       C  0.89178467  0.52540082  0.60346009    -0.21100
C1423       C  0.90303261  0.57122321  0.59784824    -0.07600
C1424       C  0.92377079  0.60339684  0.62703315     0.13200
C1425       C  0.93736348  0.65318196  0.62194358    -0.24500
H1426       H  0.94640277  0.61413681  0.68388280     0.14500
H1427       H  0.87501070  0.50072524  0.58106931     0.14500
C1428       C  0.89010958  0.46182597  0.64144873    -0.24400
H1429       H  0.95450178  0.67414523  0.64721761     0.04700
H1430       H  0.90666118  0.65666643  0.61654022     0.08000
H1431       H  0.96153344  0.66719862  0.59781230     0.08000
H1432       H  0.86469638  0.44477298  0.66438338     0.08000
H1433       H  0.92196407  0.46067074  0.64733110     0.08000
H1434       H  0.87595265  0.44203284  0.61508554     0.04700
C1435       C  0.88021445  0.52146496  0.84075807    -0.21100
C1436       C  0.92136981  0.52849370  0.85659706    -0.07600
C1437       C  0.93045306  0.54157049  0.89483595     0.13200
C1438       C  0.90034791  0.55177554  0.91484196    -0.21100
C1439       C  0.85903792  0.54421885  0.89920618    -0.07600
C1440       C  0.84829504  0.52798285  0.86206059     0.13200
C1441       C  0.80432487  0.51933404  0.84448358    -0.24500
H1442       H  0.87292512  0.51069804  0.81160866     0.14500
H1443       H  0.90869315  0.56462532  0.94335919     0.14500
C1444       C  0.97092568  0.54422232  0.91521148    -0.24400
H1445       H  0.80106041  0.50595998  0.81526346     0.04700
H1446       H  0.80347414  0.55204074  0.84349323     0.08000
H1447       H  0.77490281  0.49373056  0.86124180     0.08000
H1448       H  0.00335139  0.56802906  0.90096254     0.08000
H1449       H  0.96786204  0.50963196  0.91609626     0.08000
H1450       H  0.97279024  0.55631745  0.94472974     0.04700
C1451       C  0.93512553  0.30706959  0.62630243    -0.21100
C1452       C  0.89752395  0.30667031  0.60946453    -0.07600
C1453       C  0.87578962  0.32885454  0.62744529     0.13200
C1454       C  0.89342526  0.35272930  0.66110667    -0.21100
C1455       C  0.93295774  0.35579661  0.67721032    -0.07600
C1456       C  0.95312257  0.33103175  0.66008122     0.13200
C1457       C  0.99328514  0.32911444  0.67679748    -0.24500
H1458       H  0.95026672  0.28816562  0.61304965     0.14500
H1459       H  0.87725113  0.37094275  0.67386870     0.14500
C1460       C  0.83515602  0.32913140  0.61023281    -0.24400
H1461       H  0.00086862  0.30427919  0.66156034     0.04700
H1462       H  0.98568009  0.31808100  0.70657447     0.08000
H1463       H  0.02455922  0.36303126  0.67490781     0.08000
H1464       H  0.80652133  0.29360778  0.60694636     0.08000
H1465       H  0.84549295  0.34572562  0.58238363     0.08000
H1466       H  0.82264040  0.34870687  0.62765674     0.04700
C1467       C  0.95074590  0.33990557  0.89630202    -0.21100
C1468       C  0.90306128  0.31394623  0.89763146    -0.07600
C1469       C  0.87763047  0.31564952  0.86671108     0.13200
C1470       C  0.90047894  0.34639273  0.83705620    -0.21100
C1471       C  0.94826427  0.37381516  0.83640498    -0.07600
C1472       C  0.97376654  0.36902382  0.86602780     0.13200
C1473       C  0.02508813  0.39653737  0.86798745    -0.24500
H1474       H  0.97016439  0.33832425  0.91980032     0.14500
H1475       H  0.88088907  0.34929992  0.81431560     0.14500
C1476       C  0.82633762  0.28628249  0.86516509    -0.24400
H1477       H  0.03881783  0.38637196  0.89206161     0.04700
H1478       H  0.03521176  0.43297384  0.87251962     0.08000
H1479       H  0.04109703  0.39150704  0.84212031     0.08000
H1480       H  0.81002636  0.29309075  0.88997241     0.08000
H1481       H  0.81700437  0.24951373  0.86460402     0.08000
H1482       H  0.81208028  0.29304651  0.83955060     0.04700
C1483       C  0.10890694  0.44477471  0.65126902    -0.21100
C1484       C  0.08410836  0.46637103  0.64063617    -0.07600
C1485       C  0.07709184  0.47076761  0.60213346     0.13200
C1486       C  0.09629899  0.45412685  0.57513525    -0.21100
C1487       C  0.12143238  0.43287798  0.58600312    -0.07600
C1488       C  0.12694129  0.42712799  0.62450695     0.13200
C1489       C  0.14967728  0.40045846  0.63778982    -0.24500
H1490       H  0.11237901  0.43971283  0.68084124     0.14500
H1491       H  0.09213436  0.45810601  0.54550417     0.14500
C1492       C  0.05036338  0.49358991  0.58934096    -0.24400
H1493       H  0.14661655  0.39570474  0.66875777     0.04700
H1494       H  0.18666215  0.41891515  0.63077744     0.08000
H1495       H  0.13329610  0.36591442  0.62442627     0.08000
H1496       H  0.06506942  0.52854842  0.60176929     0.08000
H1497       H  0.01390912  0.47308958  0.59790613     0.08000
H1498       H  0.05139296  0.49686975  0.55824500     0.04700
C1499       C  0.13965422  0.46805199  0.82494555    -0.21100
C1500       C  0.12037080  0.49519507  0.83717961    -0.07600
C1501       C  0.12950669  0.51441297  0.87368464     0.13200
C1502       C  0.15656823  0.50477817  0.89740079    -0.21100
C1503       C  0.17284141  0.47472395  0.88624536    -0.07600
C1504       C  0.16517403  0.45687795  0.84936400     0.13200
C1505       C  0.18418192  0.42669040  0.83564786    -0.24500
H1506       H  0.13253076  0.45337025  0.79684160     0.14500
H1507       H  0.16303925  0.51901984  0.92562886     0.14500
C1508       C  0.11060605  0.54463525  0.88799422    -0.24400
H1509       H  0.17517397  0.41603329  0.80586638     0.04700
H1510       H  0.17047235  0.39526886  0.85294189     0.08000
H1511       H  0.22196717  0.44585070  0.83753902     0.08000
H1512       H  0.12331844  0.55852605  0.91654621     0.08000
H1513       H  0.12121202  0.57401774  0.86885897     0.08000
H1514       H  0.07272898  0.52497781  0.88973198     0.04700
C1515       C  0.04871062  0.61531937  0.62392111    -0.21100
C1516       C  0.07288970  0.61645950  0.65610156    -0.07600
C1517       C  0.11760780  0.65346664  0.66145166     0.13200
C1518       C  0.13625631  0.68880925  0.63477899    -0.21100
C1519       C  0.11141544  0.68808173  0.60298556    -0.07600
C1520       C  0.06690561  0.65033058  0.59746143     0.13200
C1521       C  0.03711647  0.64650157  0.56455701    -0.24500
H1522       H  0.01434577  0.58719687  0.61981249     0.14500
H1523       H  0.17058300  0.71707152  0.63870905     0.14500
C1524       C  0.14621811  0.65563132  0.69453437    -0.24400
H1525       H  0.00235863  0.61627966  0.56682740     0.04700
H1526       H  0.05238795  0.64230961  0.53789645     0.08000
H1527       H  0.03289137  0.67739544  0.56328630     0.08000
H1528       H  0.14910326  0.62392438  0.69549546     0.08000
H1529       H  0.13050142  0.65947970  0.72105805     0.08000
H1530       H  0.18135461  0.68533393  0.69268991     0.04700
C1531       C  0.05280830  0.64323306  0.86020001    -0.21100
C1532       C  0.08203165  0.63657644  0.83545113    -0.07600
C1533       C  0.12894807  0.65680070  0.84284639     0.13200
C1534       C  0.14517074  0.68058725  0.87681626    -0.21100
C1535       C  0.11497850  0.68303945  0.90355445    -0.07600
C1536       C  0.06834336  0.66494011  0.89489010     0.13200
C1537       C  0.03481653  0.66800982  0.92187937    -0.24500
H1538       H  0.01676024  0.62814659  0.85361576     0.14500
H1539       H  0.18121456  0.69551435  0.88325126     0.14500
C1540       C  0.16150939  0.65342294  0.81496480    -0.24400
H1541       H  0.00029432  0.65413476  0.90943501     0.04700
H1542       H  0.04725766  0.70432979  0.92936739     0.08000
H1543       H  0.03115977  0.64814599  0.94765312     0.08000
H1544       H  0.16018764  0.66897565  0.78796430     0.08000
H1545       H  0.15197533  0.61700404  0.80993347     0.08000
H1546       H  0.19729903  0.67177203  0.82513221     0.04700
C1547       C  0.32404959  0.83228444  0.63096714    -0.21100
C1548       C  0.28683921  0.84021537  0.62875598    -0.07600
C1549       C  0.27643965  0.86065420  0.66003256     0.13200
C1550       C  0.30864550  0.88096175  0.68859977    -0.21100
C1551       C  0.35007135  0.88032531  0.68713245    -0.07600
C1552       C  0.35614535  0.85230140  0.65971858     0.13200
C1553       C  0.39746948  0.84556292  0.65874506    -0.24500
H1554       H  0.33015384  0.81362198  0.60848414     0.14500
H1555       H  0.30293399  0.90033891  0.71073379     0.14500
C1556       C  0.23243291  0.86265891  0.66336504    -0.24400
H1557       H  0.39576549  0.82203288  0.63564931     0.04700
H1558       H  0.39915214  0.83010941  0.68564847     0.08000
H1559       H  0.42908618  0.87878448  0.65424384     0.08000
H1560       H  0.20282203  0.82800959  0.65847056     0.08000
H1561       H  0.23215975  0.88739301  0.64306358     0.08000
H1562       H  0.22809493  0.87421991  0.69184252     0.04700
C1563       C  0.31134683  0.90181470  0.88451965    -0.21100
C1564       C  0.30801385  0.86040711  0.89647946    -0.07600
C1565       C  0.33395854  0.84341553  0.87655193     0.13200
C1566       C  0.36250164  0.86833974  0.84616667    -0.21100
C1567       C  0.36650120  0.91012279  0.83441202    -0.07600
C1568       C  0.33976426  0.92670150  0.85390576     0.13200
C1569       C  0.34181330  0.97139427  0.84390027    -0.24500
H1570       H  0.29196608  0.91520466  0.89963987     0.14500
H1571       H  0.38274919  0.85535916  0.83188926     0.14500
C1572       C  0.33382135  0.80003843  0.88805120    -0.24400
H1573       H  0.31890796  0.97878888  0.86212418     0.04700
H1574       H  0.33065412  0.96994158  0.81445288     0.08000
H1575       H  0.37715285  0.00013642  0.84748709     0.08000
H1576       H  0.29912383  0.77017027  0.88452143     0.08000
H1577       H  0.34460850  0.80288492  0.91779596     0.08000
H1578       H  0.35775240  0.79329576  0.87060149     0.04700
C1579       C  0.59468620  0.93801660  0.65145992    -0.21100
C1580       C  0.55848206  0.90860739  0.67532863    -0.07600
C1581       C  0.53352601  0.86147885  0.66660878     0.13200
C1582       C  0.54394718  0.84542250  0.63324726    -0.21100
C1583       C  0.57916607  0.87527845  0.60891778    -0.07600
C1584       C  0.60563432  0.92184619  0.61868650     0.13200
C1585       C  0.64698348  0.95393872  0.59591399    -0.24500
H1586       H  0.61461870  0.97418418  0.65827832     0.14500
H1587       H  0.52488466  0.80920337  0.62629946     0.14500
C1588       C  0.49773206  0.82785762  0.69307479    -0.24400
H1589       H  0.66440428  0.98913058  0.60806587     0.04700
H1590       H  0.63679558  0.95578101  0.56680899     0.08000
H1591       H  0.67179477  0.94105065  0.59519496     0.08000
H1592       H  0.46926983  0.83549801  0.69644112     0.08000
H1593       H  0.51317572  0.83004573  0.72095594     0.08000
H1594       H  0.48319913  0.79204014  0.68255482     0.04700
C1595       C  0.50778320  0.88751379  0.87067210    -0.21100
C1596       C  0.54536573  0.92479802  0.85400528    -0.07600
C1597       C  0.59025926  0.93694887  0.86508057     0.13200
C1598       C  0.59601769  0.91299667  0.89460409    -0.21100
C1599       C  0.55819041  0.87704159  0.91239195    -0.07600
C1600       C  0.51361789  0.86328957  0.89967474     0.13200
C1601       C  0.47196809  0.82499987  0.91794581    -0.24500
H1602       H  0.47346911  0.87849515  0.86189285     0.14500
H1603       H  0.63018584  0.92314457  0.90439676     0.14500
C1604       C  0.63251421  0.97596558  0.84794778    -0.24400
H1605       H  0.43982190  0.81915965  0.90449131     0.04700
H1606       H  0.47045728  0.83397983  0.94779095     0.08000
H1607       H  0.47361176  0.79269632  0.91567700     0.08000
H1608       H  0.65110387  0.00241758  0.86979795     0.08000
H1609       H  0.62507591  0.99266535  0.82459708     0.08000
H1610       H  0.65523350  0.96297341  0.83673993     0.04700
C1611       C  0.60539262  0.04534397  0.61452103    -0.21100
C1612       C  0.60801765  0.06604238  0.64974297    -0.07600
C1613       C  0.64656065  0.10948294  0.65732466     0.13200
C1614       C  0.68259619  0.12861859  0.63094683    -0.21100
C1615       C  0.68137162  0.10611562  0.59695535    -0.07600
C1616       C  0.64120242  0.06442580  0.58812536     0.13200
C1617       C  0.63549677  0.03865259  0.55151453    -0.24500
H1618       H  0.57571034  0.01271664  0.60795546     0.14500
H1619       H  0.71229907  0.16136536  0.63721136     0.14500
C1620       C  0.65074821  0.13610477  0.69302625    -0.24400
H1621       H  0.60275278  0.00581369  0.55063898     0.04700
H1622       H  0.66378488  0.03064409  0.54761453     0.08000
H1623       H  0.63541375  0.05923419  0.52743548     0.08000
H1624       H  0.65401092  0.11766920  0.71737872     0.08000
H1625       H  0.62038404  0.14093670  0.69675259     0.08000
H1626       H  0.68155060  0.17062149  0.69265515     0.04700
C1627       C  0.70218018  0.12537243  0.86378607    -0.21100
C1628       C  0.68246421  0.11211578  0.89983859    -0.07600
C1629       C  0.63457807  0.08236506  0.90315021     0.13200
C1630       C  0.60849048  0.06715715  0.87074554    -0.21100
C1631       C  0.62737190  0.08199101  0.83500175    -0.07600
C1632       C  0.67525488  0.11028405  0.83122015     0.13200
C1633       C  0.69825570  0.12506060  0.79334629    -0.24500
H1634       H  0.73870102  0.14772982  0.86101884     0.14500
H1635       H  0.57286824  0.04213256  0.87342625     0.14500
C1636       C  0.60936432  0.06639648  0.94029626    -0.24400
H1637       H  0.73566131  0.14834974  0.79593045     0.04700
H1638       H  0.68362038  0.14369651  0.77830897     0.08000
H1639       H  0.69350947  0.09480452  0.77658166     0.08000
H1640       H  0.61419622  0.09645305  0.95742096     0.08000
H1641       H  0.62167489  0.04580253  0.95555587     0.08000
H1642       H  0.57191996  0.04427650  0.93665728     0.04700
C1643       C  0.47681195  0.12319484  0.60351138    -0.21100
C1644       C  0.44018202  0.09905069  0.57902754    -0.07600
C1645       C  0.41563689  0.05049943  0.58018749     0.13200
C1646       C  0.42602645  0.02783796  0.60801815    -0.21100
C1647       C  0.45996365  0.05246535  0.63465859    -0.07600
C1648       C  0.48727267  0.10053633  0.63120007     0.13200
C1649       C  0.52770082  0.12817254  0.65624508    -0.24500
H1650       H  0.49661472  0.16022622  0.60158611     0.14500
H1651       H  0.40559405  0.99089550  0.61042310     0.14500
C1652       C  0.37650384  0.02243617  0.55412353    -0.24400
H1653       H  0.54726650  0.16452168  0.64730452     0.04700
H1654       H  0.55123035  0.11363093  0.65488856     0.08000
H1655       H  0.51631476  0.12807568  0.68570173     0.08000
H1656       H  0.38894994  0.02727381  0.52454190     0.08000
H1657       H  0.35005974  0.03308962  0.55752334     0.08000
H1658       H  0.36009991  0.98519150  0.56021557     0.04700
C1659       C  0.43543275  0.10374380  0.82547545    -0.21100
C1660       C  0.47062699  0.09362353  0.83298622    -0.07600
C1661       C  0.50087296  0.11595370  0.86272618     0.13200
C1662       C  0.49443455  0.14668583  0.88516391    -0.21100
C1663       C  0.45753835  0.15447471  0.87940243    -0.07600
C1664       C  0.42804491  0.13364277  0.84891617     0.13200
C1665       C  0.38960329  0.14335021  0.84090957    -0.24500
H1666       H  0.41274981  0.08694746  0.80206678     0.14500
H1667       H  0.51732128  0.16322316  0.90851226     0.14500
C1668       C  0.53975537  0.10749396  0.87117821    -0.24400
H1669       H  0.37075968  0.12509937  0.81518463     0.04700
H1670       H  0.40356518  0.18068326  0.83662079     0.08000
H1671       H  0.36492244  0.13197468  0.86481797     0.08000
H1672       H  0.56272138  0.11644977  0.84624837     0.08000
H1673       H  0.52554118  0.07097658  0.87859749     0.08000
H1674       H  0.56044449  0.12845356  0.89531878     0.04700
loop_ 
_geom_bond_atom_site_label_1 
_geom_bond_atom_site_label_2 
_geom_bond_distance 
_geom_bond_site_symmetry_2 
_ccdc_geom_bond_type 
O1            C9   1.271       .  A
O1          Co21   1.983       .  S
O2           C10   1.262       .  A
O2          Co22   1.985       .  S
O3           C11   1.271       .  A
O3          Co23   2.022   1_565  S
O4           C12   1.299       .  A
O4          Co24   2.089       .  S
O5           C11   1.250       .  A
O5          Co22   1.950       .  S
O6           C12   1.270       .  A
O6          Co21   1.856       .  S
O7           C10   1.244       .  A
O7          Co24   1.934       .  S
O8            C9   1.275       .  A
O8          Co23   2.037   1_565  S
C9          C730   1.513       .  S
C10         C743   1.473       .  S
C11         C714   1.472       .  S
C12         C759   1.458       .  S
O13          C26   1.271       .  A
O13         Co21   2.044   1_545  S
O14          C27   1.270   1_565  A
O14         Co22   2.018       .  S
O15          C28   1.256       .  A
O15         Co23   1.955       .  S
O16          C29   1.261       .  A
O16         Co24   1.947   1_545  S
O17          C29   1.278   1_565  A
O17         Co22   2.022       .  S
O18          C28   1.270       .  A
O18         Co21   2.012   1_545  S
O19          C26   1.230       .  A
O19         Co24   1.908   1_545  S
O20          C27   1.260       .  A
O20         Co23   1.961       .  S
Co21         O25   1.960       .  S
Co22         O25   2.064       .  S
Co23         O25   2.052   1_545  S
Co24         O25   2.046       .  S
C26         C794   1.473       .  S
C27         C810   1.471       .  S
C28         C823   1.461       .  S
C29         C775   1.487       .  S
O30          C38   1.269       .  A
O30         Co50   1.876   1_655  S
O31          C39   1.261       .  A
O31         Co51   1.958       .  S
O32          C40   1.245       .  A
O32         Co52   1.938   1_655  S
O33          C41   1.277   1_455  A
O33         Co53   2.044       .  S
O34          C40   1.265       .  A
O34         Co51   1.977       .  S
O35          C41   1.270       .  A
O35         Co50   1.979   1_655  S
O36          C39   1.268   1_455  A
O36         Co53   2.011       .  S
O37          C38   1.297       .  A
O37         Co52   2.073   1_655  S
C38         C599   1.471       .  S
C39         C618   1.488       .  S
C40         C583   1.493       .  S
C41         C634   1.496       .  S
O42          C55   1.267       .  A
O42         Co50   1.998       .  S
O43          C56   1.277       .  A
O43         Co51   2.014   1_455  S
O44          C57   1.231       .  A
O44         Co52   1.915       .  S
O45          C58   1.267       .  A
O45         Co53   1.975       .  S
O46          C58   1.257       .  A
O46         Co51   1.970   1_455  S
O47          C57   1.262       .  A
O47         Co50   2.038       .  S
O48          C55   1.257       .  A
O48         Co53   1.966       .  S
O49          C56   1.264       .  A
O49         Co52   1.956       .  S
Co50         O54   1.955       .  S
Co51         O54   2.068   1_655  S
Co52         O54   2.055       .  S
Co53         O54   2.055       .  S
C55         C663   1.468       .  S
C56         C679   1.478       .  S
C57         C695   1.453       .  S
C58         C647   1.474       .  S
O59          C67   1.248       .  A
O59         Co79   1.976       .  S
O60          C68   1.262       .  A
O60         Co80   1.968       .  S
O61          C69   1.272       .  A
O61         Co81   2.009       .  S
O62          C70   1.251       .  A
O62         Co82   1.979       .  S
O63          C69   1.267       .  A
O63         Co80   1.973       .  S
O64          C70   1.259       .  A
O64         Co79   2.012       .  S
O65          C68   1.263       .  A
O65         Co82   1.983       .  S
O66          C67   1.245       .  A
O66         Co81   1.962       .  S
C67         C471   1.473       .  S
C68         C487   1.480       .  S
C69         C455   1.476       .  S
C70         C506   1.501       .  S
O71          C84   1.293       .  A
O71         Co79   2.053       .  S
O72          C85   1.261       .  A
O72         Co80   2.001       .  S
O73          C86   1.276       .  A
O73         Co81   1.912       .  S
O74          C87   1.268       .  A
O74         Co82   1.991       .  S
O75          C87   1.265       .  A
O75         Co80   1.998       .  S
O76          C86   1.295       .  A
O76         Co79   2.048       .  S
O77          C84   1.269       .  A
O77         Co82   1.910       .  S
O78          C85   1.266       .  A
O78         Co81   1.996       .  S
Co79         O83   2.245       .  S
Co80         O83   2.077       .  S
Co81         O83   1.956       .  S
Co82         O83   1.951       .  S
C84         C535   1.498       .  S
C85         C551   1.497       .  S
C86         C570   1.490       .  S
C87         C519   1.471       .  S
O88          C96   1.248       .  A
O88        Co108   1.955       .  S
O89          C97   1.266   1_556  A
O89        Co109   1.965       .  S
O90          C98   1.304       .  A
O90        Co110   2.134       .  S
O91          C99   1.276       .  A
O91        Co111   2.038       .  S
O92          C98   1.263       .  A
O92        Co946   1.881       .  S
O93         C936   1.248       .  A
O93        Co108   1.946       .  S
O94          C97   1.279       .  A
O94        Co111   2.045       .  S
O95          C96   1.258       .  A
O95        Co110   2.008       .  S
C96         C602   1.466       .  S
C97         C410   1.505       .  S
C98         C503   1.508       .  S
C99         O930   1.249   1_554  A
C99         C394   1.493       .  S
O100        C113   1.274       .  A
O100       Co945   2.042   1_554  S
O101        C951   1.291   1_554  A
O101       Co109   2.093   1_554  S
O102        C115   1.270       .  A
O102       Co110   1.994       .  S
O103        C116   1.247       .  A
O103       Co111   1.951       .  S
O104        C116   1.262       .  A
O104       Co109   2.014   1_554  S
O105        C115   1.276       .  A
O105       Co108   2.031       .  S
O106        C113   1.250       .  A
O106       Co111   1.941       .  S
O107        C114   1.265       .  A
O107       Co110   1.866       .  S
Co108       O937   2.042       .  S
Co108       O949   2.023       .  S
Co109       O929   1.881       .  S
Co109       O112   1.991   1_556  S
Co110       O949   2.028       .  S
Co111       O112   2.028       .  S
O112       Co945   2.018   1_554  S
O112       Co947   2.028   1_554  S
C113        C586   1.469       .  S
C114        O938   1.292       .  A
C114        C442   1.445       .  S
C115        C426   1.497       .  S
C116        C490   1.471       .  S
O117        C125   1.264       .  A
O117       Co137   1.854       .  S
O118        C126   1.265   1_556  A
O118       Co138   2.000       .  S
O119        C127   1.300       .  A
O119       Co139   2.061       .  S
O120        C128   1.275       .  A
O120       Co140   2.041       .  S
O121        C127   1.282       .  A
O121       Co975   1.911       .  S
O122        C965   1.271       .  A
O122       Co137   2.015       .  S
O123        C126   1.276       .  A
O123       Co140   2.063       .  S
O124        C125   1.300       .  A
O124       Co139   2.067       .  S
C125        C791   1.477       .  S
C126        C362   1.544       .  S
C127        C631   1.490       .  S
C128        O959   1.271   1_554  A
C128        C343   1.538   1_554  S
O129        C142   1.255       .  A
O129       Co974   1.965   1_554  S
O130        C980   1.246   1_554  A
O130       Co138   1.993   1_554  S
O131        C144   1.256       .  A
O131       Co139   2.009       .  S
O132        C145   1.259       .  A
O132       Co140   1.961       .  S
O133        C145   1.272       .  A
O133       Co138   2.013   1_554  S
O134        C144   1.251       .  A
O134       Co137   2.001       .  S
O135        C142   1.264       .  A
O135       Co140   2.000       .  S
O136        C143   1.251       .  A
O136       Co139   2.005       .  S
Co137       O966   1.964       .  S
Co137       O978   1.928       .  S
Co138       O958   1.911       .  S
Co138       O141   1.946   1_556  S
Co139       O978   2.278       .  S
Co140       O141   2.098       .  S
O141       Co974   1.935   1_554  S
O141       Co976   2.274   1_554  S
C142        C778   1.485       .  S
C143        O967   1.248       .  A
C143        C423   1.494       .  S
C144        C375   1.513       .  S
C145        C615   1.467       .  S
O146        C154   1.263       .  A
O146       Co166   2.008       .  S
O147        C155   1.274   1_556  A
O147       Co167   2.010       .  S
O148        C156   1.290       .  A
O148       Co168   2.071       .  S
O149        C157   1.271       .  A
O149       Co169   1.957       .  S
O150        C156   1.269       .  A
O150      Co1004   1.888       .  S
O151        C994   1.287       .  A
O151       Co166   2.020       .  S
O152        C155   1.256       .  A
O152       Co169   1.961       .  S
O153        C154   1.258       .  A
O153       Co168   1.995       .  S
C154        C727   1.505       .  S
C155        C391   1.495       .  S
C156        C698   1.467       .  S
C157        O988   1.286       .  A
C157        C295   1.469       .  S
O158        C171   1.252       .  A
O158      Co1003   2.027       .  S
O159       C1009   1.295   1_554  A
O159       Co167   2.093   1_554  S
O160        C173   1.308       .  A
O160       Co168   2.098       .  S
O161        C174   1.267       .  A
O161       Co169   2.001       .  S
O162        C174   1.257       .  A
O162       Co167   1.963   1_554  S
O163        C173   1.277       .  A
O163       Co166   1.884       .  S
O164        C171   1.241       .  A
O164       Co169   1.956       .  S
O165        C172   1.270       .  A
O165       Co168   1.909       .  S
Co166       O995   2.033       .  S
Co166      O1007   1.879       .  S
Co167       O987   1.894       .  S
Co167       O170   1.995   1_556  S
Co168      O1007   2.085       .  S
Co169       O170   2.062       .  S
O170      Co1003   1.878       .  S
O170      Co1005   2.085   1_554  S
C171        C711   1.477       .  S
C172        O996   1.294       .  A
C172        C314   1.482       .  S
C173        C330   1.487       .  S
C174        C682   1.482       .  S
O175        C183   1.300       .  A
O175       Co195   2.123       .  S
O176        C184   1.274       .  A
O176       Co196   2.030   1_554  S
O177        C185   1.268       .  A
O177       Co197   1.989       .  S
O178        C186   1.243       .  A
O178       Co198   1.953       .  S
O179       C1022   1.278   1_556  A
O179       Co196   2.045       .  S
O180        C186   1.258       .  A
O180      Co1032   2.004   1_554  S
O181        C184   1.251       .  A
O181       Co198   1.927       .  S
O182        C183   1.261       .  A
O182       Co197   1.869       .  S
C183        C327   1.490       .  S
C184        C522   1.467       .  S
C185       O1016   1.279       .  A
C185        C282   1.518       .  S
C186        C746   1.465       .  S
O187       C1037   1.274       .  A
O187       Co195   1.994       .  S
O188        C201   1.259       .  A
O188      Co1033   1.975       .  S
O189        C202   1.294       .  A
O189       Co197   2.102       .  S
O190        C203   1.271       .  A
O190       Co198   2.032       .  S
O191        C203   1.255   1_556  A
O191       Co196   1.963       .  S
O192        C202   1.264       .  A
O192       Co195   1.879       .  S
O193        C200   1.285       .  A
O193       Co198   2.071       .  S
O194        C201   1.264       .  A
O194       Co197   2.014       .  S
Co195      O1017   2.001       .  S
Co195      O1036   2.021       .  S
Co196      O1025   1.975       .  S
Co196       O199   2.046   1_556  S
Co197      O1036   2.001       .  S
Co198       O199   2.049       .  S
O199      Co1032   2.023   1_554  S
O199      Co1034   2.012   1_554  S
C200       O1024   1.272   1_554  A
C200        C346   1.533       .  S
C201        C538   1.498       .  S
C202        C762   1.457       .  S
C203        C407   1.505       .  S
O204        C212   1.260       .  A
O204       Co224   1.967       .  S
O205        C213   1.258   1_556  A
O205       Co225   1.970       .  S
O206        C214   1.272       .  A
O206       Co226   2.032       .  S
O207        C215   1.285   1_554  A
O207       Co227   2.091       .  S
O208        C214   1.261       .  A
O208      Co1062   1.958       .  S
O209       C1052   1.267       .  A
O209       Co224   1.979       .  S
O210        C213   1.272       .  A
O210       Co227   2.047       .  S
O211        C212   1.266       .  A
O211       Co226   2.014       .  S
C212        C666   1.476       .  S
C213        C263   1.523       .  S
C214        C567   1.491       .  S
C215       O1046   1.264       .  A
C215        C359   1.546       .  S
O216        C229   1.262       .  A
O216      Co1061   2.010   1_554  S
O217       C1067   1.276   1_556  A
O217       Co225   2.076       .  S
O218        C231   1.255       .  A
O218       Co226   1.950       .  S
O219        C232   1.252       .  A
O219       Co227   1.953       .  S
O220        C232   1.272       .  A
O220       Co225   2.030   1_554  S
O221        C231   1.277       .  A
O221       Co224   2.059       .  S
O222        C229   1.245       .  A
O222       Co227   1.933       .  S
O223        C230   1.256       .  A
O223       Co226   1.966       .  S
Co224      O1053   2.010       .  S
Co224      O1065   2.144       .  S
Co225      O1045   1.955       .  S
Co225       O228   2.125       .  S
Co226      O1065   2.108       .  S
Co227       O228   2.120   1_554  S
O228      Co1061   2.143       .  S
O228      Co1063   2.109       .  S
C229        C650   1.477       .  S
C230       O1054   1.275       .  A
C230        C279   1.519       .  S
C231        C311   1.495       .  S
C232        C554   1.494       .  S
O233        C241   1.287       .  A
O233       Co253   2.071       .  S
O234        C242   1.272       .  A
O234       Co254   2.033   1_554  S
O235        C243   1.231       .  A
O235       Co255   1.920       .  S
O236        C244   1.264       .  A
O236       Co256   1.971       .  S
O237       C1080   1.257   1_554  A
O237       Co254   2.019   1_554  S
O238        C244   1.265       .  A
O238      Co1090   2.002   1_554  S
O239        C242   1.251       .  A
O239       Co256   1.956       .  S
O240        C241   1.263       .  A
O240       Co255   1.955       .  S
C241        C378   1.499       .  S
C242        C458   1.472       .  S
C243       O1074   1.256       .  A
C243        C439   1.442       .  S
C244        C807   1.472       .  S
O245       C1095   1.252       .  A
O245       Co253   1.958       .  S
O246        C259   1.273       .  A
O246      Co1091   1.897       .  S
O247        C260   1.240       .  A
O247       Co255   1.942       .  S
O248        C261   1.283       .  A
O248       Co256   2.067       .  S
O249        C261   1.264   1_556  A
O249       Co254   1.968       .  S
O250        C260   1.254       .  A
O250       Co253   1.984       .  S
O251        C258   1.267       .  A
O251       Co256   2.006       .  S
O252        C259   1.289       .  A
O252       Co255   2.048       .  S
Co253      O1075   1.998       .  S
Co253      O1094   2.066       .  S
Co254      O1083   1.898       .  S
Co254       O257   1.969   1_556  S
Co255      O1094   2.067       .  S
Co256       O257   2.054       .  S
O257      Co1090   2.067   1_554  S
O257      Co1092   2.061   1_554  S
C258       O1082   1.252   1_554  A
C258        C298   1.480       .  S
C259        C474   1.480       .  S
C260        C826   1.461       .  S
C261        C266   1.523       .  S
C262        C263   1.412       .  A
C262        C267   1.419       .  A
C262        H269   1.083       .  S
C263        C264   1.425   1_554  A
C264        C265   1.416       .  A
C264        C271   1.509       .  S
C265        C266   1.412   1_556  A
C265        H270   1.084       .  S
C266        C267   1.423       .  A
C267        C268   1.506       .  S
C268        H272   1.111       .  S
C268        H273   1.109       .  S
C268       H1111   1.110       .  S
C271        H275   1.110       .  S
C271        H277   1.111       .  S
C271       H1113   1.110       .  S
H274       C1105   1.110       .  S
H276       C1108   1.110       .  S
C278        C279   1.412       .  A
C278        C283   1.416       .  A
C278        H285   1.084       .  S
C279        C280   1.422       .  A
C280        C281   1.418       .  A
C280        C287   1.506       .  S
C281        C282   1.412       .  A
C281        H286   1.084       .  S
C282        C283   1.421       .  A
C283       C1121   1.508       .  S
C284       C1120   1.508       .  S
C284        H288   1.111       .  S
C284        H290   1.111       .  S
C284       H1126   1.107       .  S
C287        H291   1.109       .  S
C287        H293   1.111       .  S
C287       H1129   1.110       .  S
H289       C1121   1.109       .  S
H292       C1124   1.110       .  S
C294        C299   1.401   1_565  A
C294       C1132   1.398       .  A
C294        H301   1.085       .  S
C295        C296   1.412       .  A
C295       C1131   1.398   1_554  A
C296        C297   1.402   1_565  A
C296        C303   1.508       .  S
C297        C298   1.405       .  A
C297        H302   1.084       .  S
C298       C1136   1.422   1_554  A
C299       C1135   1.423       .  A
C299        C300   1.510       .  S
C300        H304   1.111       .  S
C300        H306   1.110       .  S
C300       H1142   1.109       .  S
C303        H307   1.111       .  S
C303        H308   1.110       .  S
C303        H309   1.111       .  S
H305       C1137   1.109       .  S
C310        C311   1.406       .  A
C310        C315   1.408       .  A
C310        H317   1.084       .  S
C311        C312   1.426       .  A
C312        C313   1.405       .  A
C312        C319   1.510       .  S
C313        C314   1.397       .  A
C313        H318   1.082       .  S
C314        C315   1.414       .  A
C315        C316   1.505       .  S
C316        H320   1.111       .  S
C316        H321   1.109       .  S
C316       H1159   1.110       .  S
C319        H323   1.110       .  S
C319        H325   1.110       .  S
C319       H1161   1.110       .  S
H322       C1153   1.109       .  S
H324       C1156   1.110   1_554  S
C326        C327   1.408       .  A
C326        C331   1.408       .  A
C326        H333   1.084       .  S
C327       C1165   1.421       .  A
C328        C329   1.400       .  A
C328       C1164   1.414       .  A
C328        C335   1.505       .  S
C329       C1167   1.405       .  A
C329        H334   1.082       .  S
C330        C331   1.418       .  A
C330       C1166   1.402       .  A
C331        C332   1.508       .  S
C332        H336   1.111       .  S
C332        H337   1.107       .  S
C332        H338   1.109       .  S
C335        H339   1.105       .  S
C335        H341   1.111       .  S
C335       H1177   1.109   1_554  S
H340       C1172   1.109       .  S
C342        C343   1.416   1_554  A
C342        C347   1.425   1_545  A
C342        H349   1.084       .  S
C343       C1181   1.426       .  A
C344        C345   1.420   1_545  A
C344       C1180   1.427       .  A
C344        C351   1.499       .  S
C345       C1183   1.410       .  A
C345        H350   1.083       .  S
C346        C347   1.424       .  A
C346       C1182   1.411   1_554  A
C347        C348   1.507       .  S
C348        H352   1.111       .  S
C348        H354   1.105       .  S
C348       H1190   1.110       .  S
C351        H355   1.110       .  S
C351        H357   1.110       .  S
C351       H1193   1.099       .  S
H353       C1185   1.110       .  S
H356       C1188   1.099       .  S
C358        C359   1.414   1_554  A
C358        C363   1.430   1_455  A
C358        H365   1.083       .  S
C359        C360   1.432       .  A
C360        C361   1.426   1_455  A
C360        C367   1.508       .  S
C361        C362   1.413   1_556  A
C361        H366   1.084       .  S
C362        C363   1.430       .  A
C363        C364   1.506       .  S
C364        H368   1.111       .  S
C364        H370   1.108       .  S
C364       H1206   1.110       .  S
C367        H372   1.110       .  S
C367        H373   1.111       .  S
C367       H1208   1.110       .  S
H369       C1201   1.110       .  S
H371       C1204   1.110       .  S
C374        C375   1.408       .  A
C374        C379   1.408       .  A
C374        H381   1.084       .  S
C375       C1213   1.425       .  A
C376        C377   1.420       .  A
C376       C1212   1.425   1_554  A
C376        C383   1.503       .  S
C377       C1215   1.406   1_554  A
C377        H382   1.084       .  S
C378        C379   1.418       .  A
C378       C1214   1.405       .  A
C379        C380   1.509       .  S
C380        H384   1.111       .  S
C380        H385   1.109       .  S
C380        H386   1.108       .  S
C383        H387   1.110       .  S
C383        H388   1.107       .  S
C383        H389   1.111       .  S
C390        C391   1.398   1_556  A
C390        C395   1.407   1_455  A
C390        H397   1.082       .  S
C391        C392   1.431       .  A
C392        C393   1.402   1_455  A
C392        C399   1.512       .  S
C393        C394   1.398       .  A
C393        H398   1.084       .  S
C394        C395   1.427   1_554  A
C395        C396   1.509       .  S
C396        H400   1.111       .  S
C396        H402   1.109       .  S
C396       H1238   1.110       .  S
C399        H404   1.110       .  S
C399        H405   1.111       .  S
C399       H1240   1.110       .  S
H401       C1233   1.110       .  S
H403       C1236   1.110       .  S
C406        C407   1.410       .  A
C406        C411   1.414       .  A
C406        H413   1.084       .  S
C407        C408   1.424   1_554  A
C408        C409   1.406       .  A
C408        C415   1.511       .  S
C409        C410   1.407   1_556  A
C409        H414   1.084       .  S
C410        C411   1.421       .  A
C411        C412   1.508       .  S
C412        H416   1.111       .  S
C412        H418   1.107       .  S
C412       H1254   1.110       .  S
C415        H420   1.110       .  S
C415        H421   1.111       .  S
C415       H1256   1.110       .  S
H417       C1249   1.110       .  S
H419       C1252   1.110       .  S
C422        C427   1.416       .  A
C422       C1260   1.407       .  A
C422        H429   1.083       .  S
C423        C424   1.415       .  A
C423       C1259   1.407       .  A
C424        C425   1.404       .  A
C424        C431   1.509       .  S
C425        C426   1.407       .  A
C425        H430   1.083       .  S
C426       C1264   1.420       .  A
C427       C1263   1.422       .  A
C427        C428   1.506       .  S
C428        H432   1.109       .  S
C428        H434   1.107       .  S
C428       H1270   1.108       .  S
C431        H435   1.108       .  S
C431        H436   1.109       .  S
C431        H437   1.111       .  S
H433       C1265   1.108       .  S
C438        C439   1.397       .  A
C438        C443   1.393       .  A
C438        H445   1.085       .  S
C439        C440   1.408       .  A
C440        C441   1.394       .  A
C440       C1284   1.508       .  S
C441        C442   1.398       .  A
C441       H1283   1.085       .  S
C442        C443   1.406       .  A
C443        C444   1.504       .  S
C444        H448   1.111       .  S
C444        H450   1.110       .  S
C444       H1286   1.110       .  S
H446       C1278   1.085       .  S
C447       C1277   1.507       .  S
C447        H451   1.110       .  S
C447        H453   1.111       .  S
C447       H1289   1.109       .  S
H449       C1281   1.110       .  S
H452       C1284   1.110       .  S
C454        C455   1.403       .  A
C454        C459   1.396       .  A
C454        H461   1.084       .  S
C455        C456   1.414       .  A
C456        C457   1.407       .  A
C456        C463   1.506       .  S
C457        C458   1.403       .  A
C457        H462   1.083       .  S
C458        C459   1.411       .  A
C459        C460   1.496       .  S
C460        H464   1.111       .  S
C460        H465   1.109       .  S
C460        H466   1.109       .  S
C463        H467   1.108       .  S
C463        H468   1.111       .  S
C463        H469   1.111       .  S
C470        C471   1.400       .  A
C470        C475   1.399       .  A
C470        H477   1.084       .  S
C471        C472   1.416       .  A
C472        C473   1.397       .  A
C472        C479   1.507       .  S
C473        C474   1.403       .  A
C473        H478   1.084       .  S
C474        C475   1.423       .  A
C475        C476   1.511       .  S
C476        H480   1.111       .  S
C476        H481   1.110       .  S
C476        H482   1.110       .  S
C479        H483   1.106       .  S
C479        H484   1.108       .  S
C479        H485   1.111       .  S
C486        C487   1.411       .  A
C486        C491   1.397       .  A
C486        H493   1.082       .  S
C487        C488   1.412       .  A
C488        C489   1.402       .  A
C488        C495   1.508       .  S
C489        C490   1.408       .  A
C489        H494   1.085       .  S
C490        C491   1.407       .  A
C491        C492   1.508       .  S
C492        H496   1.109       .  S
C492        H497   1.110       .  S
C492        H498   1.106       .  S
C495        H499   1.109       .  S
C495        H500   1.110       .  S
C495        H501   1.111       .  S
C502        C503   1.411       .  A
C502        C507   1.406       .  A
C502        H509   1.083       .  S
C503        C504   1.418       .  A
C504        C505   1.414       .  A
C504        C511   1.503       .  S
C505        C506   1.409       .  A
C505        H510   1.084       .  S
C506        C507   1.418       .  A
C507        C508   1.510       .  S
C508        H512   1.111       .  S
C508        H513   1.110       .  S
C508        H514   1.110       .  S
C511        H515   1.110       .  S
C511        H516   1.110       .  S
C511        H517   1.111       .  S
C518        C519   1.399       .  A
C518        C523   1.398       .  A
C518        H525   1.085       .  S
C519        C520   1.417       .  A
C520        C521   1.401       .  A
C520        C527   1.502       .  S
C521        C522   1.397       .  A
C521        H526   1.084       .  S
C522        C523   1.417       .  A
C523        C524   1.510       .  S
C524        H528   1.111       .  S
C524        H529   1.108       .  S
C524        H530   1.111       .  S
C527        H531   1.106       .  S
C527        H532   1.107       .  S
C527        H533   1.111       .  S
C534        C535   1.408       .  A
C534        C539   1.410       .  A
C534        H541   1.084       .  S
C535        C536   1.421       .  A
C536        C537   1.404       .  A
C536        C543   1.509       .  S
C537        C538   1.406       .  A
C537        H542   1.084       .  S
C538        C539   1.420       .  A
C539        C540   1.508       .  S
C540        H544   1.111       .  S
C540        H545   1.110       .  S
C540        H546   1.110       .  S
C543        H547   1.110       .  S
C543        H548   1.110       .  S
C543        H549   1.111       .  S
C550        C551   1.400       .  A
C550        C555   1.405       .  A
C550        H557   1.084       .  S
C551        C552   1.427       .  A
C552        C553   1.402       .  A
C552        C559   1.504       .  S
C553        C554   1.398       .  A
C553        H558   1.084       .  S
C554        C555   1.424       .  A
C555        C556   1.504       .  S
C556        H560   1.106       .  S
C556        H561   1.109       .  S
C556        H562   1.111       .  S
C559        H563   1.102       .  S
C559        H564   1.108       .  S
C559        H565   1.111       .  S
C566        C567   1.407       .  A
C566        C571   1.404       .  A
C566        H573   1.084       .  S
C567        C568   1.419       .  A
C568        C569   1.403       .  A
C568        C575   1.509       .  S
C569        C570   1.406       .  A
C569        H574   1.084       .  S
C570        C571   1.418       .  A
C571        C572   1.508       .  S
C572        H576   1.111       .  S
C572        H577   1.110       .  S
C572        H578   1.110       .  S
C575        H579   1.109       .  S
C575        H580   1.110       .  S
C575        H581   1.110       .  S
C582        C583   1.412       .  A
C582        C587   1.396       .  A
C582        H589   1.084       .  S
C583        C584   1.419       .  A
C584        C585   1.412       .  A
C584        C591   1.507       .  S
C585        C586   1.405       .  A
C585        H590   1.083       .  S
C586        C587   1.406       .  A
C587        C588   1.509       .  S
C588        H592   1.111       .  S
C588        H593   1.109       .  S
C588        H594   1.109       .  S
C591        H595   1.110       .  S
C591        H596   1.109       .  S
C591        H597   1.110       .  S
C598        C599   1.407       .  A
C598        C603   1.401       .  A
C598        H605   1.084       .  S
C599        C600   1.413       .  A
C600        C601   1.395       .  A
C600        C607   1.511       .  S
C601        C602   1.403       .  A
C601        H606   1.082       .  S
C602        C603   1.405       .  A
C603        C604   1.502       .  S
C604        H608   1.111       .  S
C604        H609   1.108       .  S
C604        H610   1.110       .  S
C607        H611   1.105   1_655  S
C607        H612   1.110       .  S
C607        H613   1.111       .  S
C614        C615   1.396       .  A
C614        C619   1.404       .  A
C614        H621   1.084       .  S
C615        C616   1.411       .  A
C616        C617   1.398       .  A
C616        C623   1.507       .  S
C617        C618   1.406       .  A
C617        H622   1.084       .  S
C618        C619   1.427       .  A
C619        C620   1.509   1_655  S
C620        H624   1.111       .  S
C620        H625   1.110       .  S
C620        H626   1.108       .  S
C623        H627   1.109       .  S
C623        H628   1.108       .  S
C623        H629   1.111       .  S
C630        C631   1.398       .  A
C630        C635   1.405       .  A
C630        H637   1.084       .  S
C631        C632   1.420       .  A
C632        C633   1.411       .  A
C632        C639   1.507       .  S
C633        C634   1.403       .  A
C633        H638   1.084       .  S
C634        C635   1.424       .  A
C635        C636   1.504   1_655  S
C636        H640   1.110       .  S
C636        H641   1.104       .  S
C636        H642   1.108       .  S
C639        H643   1.109       .  S
C639        H644   1.110       .  S
C639        H645   1.111       .  S
C646        C647   1.396       .  A
C646        C651   1.392       .  A
C646        H653   1.084       .  S
C647        C648   1.424       .  A
C648        C649   1.397       .  A
C648        C655   1.512       .  S
C649        C650   1.400       .  A
C649        H654   1.084       .  S
C650        C651   1.422       .  A
C651        C652   1.506       .  S
C652        H656   1.111       .  S
C652        H657   1.110       .  S
C652        H658   1.108       .  S
C655        H659   1.111       .  S
C655        H660   1.109   1_455  S
C655        H661   1.111       .  S
C662        C663   1.405       .  A
C662        C667   1.403       .  A
C662        H669   1.084       .  S
C663        C664   1.408       .  A
C664        C665   1.399       .  A
C664        C671   1.507       .  S
C665        C666   1.408       .  A
C665        H670   1.084       .  S
C666        C667   1.410       .  A
C667        C668   1.505       .  S
C668        H672   1.111       .  S
C668        H673   1.109       .  S
C668        H674   1.107       .  S
C671        H675   1.110       .  S
C671        H676   1.107       .  S
C671        H677   1.109       .  S
C678        C679   1.401       .  A
C678        C683   1.394       .  A
C678        H685   1.084       .  S
C679        C680   1.415       .  A
C680        C681   1.406       .  A
C680        C687   1.507       .  S
C681        C682   1.406       .  A
C681        H686   1.084       .  S
C682        C683   1.421       .  A
C683        C684   1.512       .  S
C684        H688   1.111       .  S
C684        H689   1.109       .  S
C684        H690   1.110       .  S
C687        H691   1.111       .  S
C687        H692   1.108       .  S
C687        H693   1.111       .  S
C694        C695   1.398       .  A
C694        C699   1.394       .  A
C694        H701   1.085       .  S
C695        C696   1.401       .  A
C696        C697   1.399       .  A
C696        C703   1.505       .  S
C697        C698   1.408       .  A
C697        H702   1.084       .  S
C698        C699   1.412       .  A
C699        C700   1.507       .  S
C700        H704   1.111   1_455  S
C700        H705   1.104       .  S
C700        H706   1.109       .  S
C703        H707   1.109       .  S
C703        H708   1.109       .  S
C703        H709   1.111       .  S
C710        C711   1.399       .  A
C710        C715   1.400       .  A
C710        H717   1.084       .  S
C711        C712   1.420       .  A
C712        C713   1.400       .  A
C712        C719   1.509       .  S
C713        C714   1.397       .  A
C713        H718   1.084       .  S
C714        C715   1.421       .  A
C715        C716   1.509       .  S
C716        H720   1.111       .  S
C716        H721   1.109       .  S
C716        H722   1.109       .  S
C719        H723   1.111       .  S
C719        H724   1.109       .  S
C719        H725   1.111       .  S
C726        C727   1.404       .  A
C726        C731   1.415       .  A
C726        H733   1.084       .  S
C727        C728   1.423       .  A
C728        C729   1.412       .  A
C728        C735   1.509       .  S
C729        C730   1.407       .  A
C729        H734   1.084       .  S
C730        C731   1.428       .  A
C731        C732   1.508       .  S
C732        H736   1.111       .  S
C732        H737   1.110       .  S
C732        H738   1.110       .  S
C735        H739   1.110       .  S
C735        H740   1.111       .  S
C735        H741   1.111       .  S
C742        C743   1.411       .  A
C742        C747   1.393       .  A
C742        H749   1.084       .  S
C743        C744   1.411       .  A
C744        C745   1.401       .  A
C744        C751   1.507       .  S
C745        C746   1.406       .  A
C745        H750   1.085       .  S
C746        C747   1.404       .  A
C747        C748   1.505       .  S
C748        H752   1.111       .  S
C748        H753   1.106       .  S
C748        H754   1.106       .  S
C751        H755   1.109       .  S
C751        H756   1.106       .  S
C751        H757   1.111       .  S
C758        C759   1.399       .  A
C758        C763   1.391       .  A
C758        H765   1.086       .  S
C759        C760   1.415       .  A
C760        C761   1.401       .  A
C760        C767   1.507       .  S
C761        C762   1.400       .  A
C761        H766   1.085       .  S
C762        C763   1.408       .  A
C763        C764   1.502       .  S
C764        H768   1.110       .  S
C764        H769   1.107       .  S
C764        H770   1.109       .  S
C767        H771   1.110       .  S
C767        H772   1.104       .  S
C767        H773   1.110       .  S
C774        C775   1.404       .  A
C774        C779   1.398       .  A
C774        H781   1.084       .  S
C775        C776   1.419       .  A
C776        C777   1.404       .  A
C776        C783   1.508       .  S
C777        C778   1.405       .  A
C777        H782   1.084       .  S
C778        C779   1.420       .  A
C779        C780   1.512       .  S
C780        H784   1.111   1_545  S
C780        H785   1.109       .  S
C780        H786   1.108       .  S
C783        H787   1.107       .  S
C783        H788   1.110       .  S
C783        H789   1.111       .  S
C790        C791   1.405       .  A
C790        C795   1.406       .  A
C790        H797   1.084       .  S
C791        C792   1.421       .  A
C792        C793   1.388       .  A
C792        C799   1.513       .  S
C793        C794   1.394       .  A
C793        H798   1.079       .  S
C794        C795   1.417       .  A
C795        C796   1.506       .  S
C796        H800   1.111       .  S
C796        H801   1.108       .  S
C796        H802   1.110       .  S
C799        H803   1.111       .  S
C799        H804   1.110       .  S
C799        H805   1.111       .  S
C806        C807   1.400       .  A
C806        C811   1.399       .  A
C806        H813   1.084       .  S
C807        C808   1.416       .  A
C808        C809   1.402       .  A
C808        C815   1.507       .  S
C809        C810   1.403       .  A
C809        H814   1.085   1_545  S
C810        C811   1.413       .  A
C811        C812   1.507       .  S
C812        H816   1.111       .  S
C812        H817   1.109       .  S
C812        H818   1.108       .  S
C815        H819   1.109       .  S
C815        H820   1.109       .  S
C815        H821   1.111   1_545  S
C822        C823   1.404       .  A
C822        C827   1.402       .  A
C822        H829   1.084       .  S
C823        C824   1.405       .  A
C824        C825   1.389       .  A
C824        C831   1.496       .  S
C825        C826   1.402       .  A
C825        H830   1.084       .  S
C826        C827   1.408       .  A
C827        C828   1.505       .  S
C828        H832   1.111       .  S
C828        H833   1.110       .  S
C828        H834   1.109       .  S
C831        H835   1.109       .  S
C831        H836   1.104       .  S
C831        H837   1.111       .  S
O838        C846   1.272       .  A
O838       Co858   1.984       .  S
O839        C847   1.262       .  A
O839       Co859   1.983       .  S
O840        C848   1.272       .  A
O840       Co860   2.022   1_565  S
O841        C849   1.301       .  A
O841       Co861   2.094   1_565  S
O842        C848   1.251       .  A
O842       Co859   1.953       .  S
O843        C849   1.271       .  A
O843       Co858   1.856       .  S
O844        C847   1.246       .  A
O844       Co861   1.944   1_565  S
O845        C846   1.275       .  A
O845       Co860   2.034   1_565  S
C846       C1567   1.512       .  S
C847       C1580   1.474       .  S
C848       C1551   1.477       .  S
C849       C1596   1.458       .  S
O850        C863   1.270       .  A
O850       Co858   2.046   1_545  S
O851        C864   1.270   1_565  A
O851       Co859   2.017       .  S
O852        C865   1.256       .  A
O852       Co860   1.954       .  S
O853        C866   1.261       .  A
O853       Co861   1.949       .  S
O854        C866   1.279   1_565  A
O854       Co859   2.028       .  S
O855        C865   1.270       .  A
O855       Co858   2.010   1_545  S
O856        C863   1.232       .  A
O856       Co861   1.911       .  S
O857        C864   1.259       .  A
O857       Co860   1.955       .  S
Co858       O862   1.956       .  S
Co859       O862   2.063       .  S
Co860       O862   2.050   1_545  S
Co861       O862   2.049   1_545  S
C863       C1631   1.476       .  S
C864       C1647   1.472       .  S
C865       C1660   1.460       .  S
C866       C1612   1.491       .  S
O867        C875   1.267       .  A
O867       Co887   1.871   1_655  S
O868        C876   1.260       .  A
O868       Co888   1.958       .  S
O869        C877   1.245       .  A
O869       Co889   1.942   1_655  S
O870        C878   1.276   1_455  A
O870       Co890   2.037       .  S
O871        C877   1.264       .  A
O871       Co888   1.976       .  S
O872        C878   1.271       .  A
O872       Co887   1.982   1_655  S
O873        C876   1.268       .  A
O873       Co890   2.013   1_655  S
O874        C875   1.298       .  A
O874       Co889   2.074   1_655  S
C875       C1436   1.468       .  S
C876       C1455   1.487       .  S
C877       C1420   1.492       .  S
C878       C1471   1.496       .  S
O879        C892   1.265       .  A
O879       Co887   1.995       .  S
O880        C893   1.277       .  A
O880       Co888   2.012   1_455  S
O881        C894   1.232       .  A
O881       Co889   1.917       .  S
O882        C895   1.262       .  A
O882       Co890   1.962       .  S
O883        C895   1.262       .  A
O883       Co888   1.985   1_455  S
O884        C894   1.261       .  A
O884       Co887   2.034       .  S
O885        C892   1.256       .  A
O885       Co890   1.965       .  S
O886        C893   1.265       .  A
O886       Co889   1.957       .  S
Co887       O891   1.953       .  S
Co888       O891   2.068   1_655  S
Co889       O891   2.060       .  S
Co890       O891   2.052       .  S
C892       C1500   1.469       .  S
C893       C1516   1.479       .  S
C894       C1532   1.453       .  S
C895       C1484   1.458       .  S
O896        C904   1.247       .  A
O896       Co916   1.975       .  S
O897        C905   1.263       .  A
O897       Co917   1.970       .  S
O898        C906   1.271       .  A
O898       Co918   2.007       .  S
O899        C907   1.251       .  A
O899       Co919   1.980       .  S
O900        C906   1.267       .  A
O900       Co917   1.972       .  S
O901        C907   1.259       .  A
O901       Co916   2.011       .  S
O902        C905   1.265       .  A
O902       Co919   1.989       .  S
O903        C904   1.246       .  A
O903       Co918   1.967       .  S
C904       C1308   1.473       .  S
C905       C1324   1.480       .  S
C906       C1292   1.477       .  S
C907       C1343   1.500       .  S
O908        C921   1.293       .  A
O908       Co916   2.054       .  S
O909        C922   1.262       .  A
O909       Co917   2.004       .  S
O910        C923   1.274       .  A
O910       Co918   1.902       .  S
O911        C924   1.267       .  A
O911       Co919   1.990       .  S
O912        C924   1.262       .  A
O912       Co917   1.987       .  S
O913        C923   1.296       .  A
O913       Co916   2.052       .  S
O914        C921   1.269       .  A
O914       Co919   1.911       .  S
O915        C922   1.265       .  A
O915       Co918   2.001       .  S
Co916       O920   2.246       .  S
Co917       O920   2.077       .  S
Co918       O920   1.948       .  S
Co919       O920   1.946       .  S
C921       C1372   1.499       .  S
C922       C1388   1.500       .  S
C923       C1407   1.486       .  S
C924       C1356   1.469       .  S
O925        C933   1.248       .  A
O925       Co945   1.955       .  S
O926        C934   1.267       .  A
O926       Co946   1.966       .  S
O927        C935   1.305       .  A
O927       Co947   2.138       .  S
O928        C936   1.276       .  A
O928       Co948   2.038       .  S
O929        C935   1.262       .  A
O930       Co945   1.947       .  S
O931        C934   1.277       .  A
O931       Co948   2.040       .  S
O932        C933   1.258       .  A
O932       Co947   2.008       .  S
C933       C1439   1.464       .  S
C934       C1247   1.504       .  S
C935       C1340   1.509       .  S
C936       C1231   1.493       .  S
O937        C950   1.274       .  A
O938       Co946   2.094       .  S
O939        C952   1.270       .  A
O939       Co947   1.995   1_554  S
O940        C953   1.248       .  A
O940       Co948   1.952       .  S
O941        C953   1.262       .  A
O941       Co946   2.016       .  S
O942        C952   1.277   1_556  A
O942       Co945   2.030       .  S
O943        C950   1.250       .  A
O943       Co948   1.940       .  S
O944        C951   1.265       .  A
O944       Co947   1.868       .  S
Co946       O949   1.993       .  S
Co948       O949   2.029       .  S
C950       C1423   1.468       .  S
C951       C1279   1.444   1_556  S
C952       C1263   1.498       .  S
C953       C1327   1.476       .  S
O954        C962   1.265       .  A
O954       Co974   1.858       .  S
O955        C963   1.264       .  A
O955       Co975   2.000       .  S
O956        C964   1.298       .  A
O956       Co976   2.058       .  S
O957        C965   1.275       .  A
O957       Co977   2.042       .  S
O958        C964   1.281       .  A
O959       Co974   2.014       .  S
O960        C963   1.277       .  A
O960       Co977   2.069       .  S
O961        C962   1.300       .  A
O961       Co976   2.068       .  S
C962       C1628   1.481       .  S
C963       C1199   1.546       .  S
C964       C1468   1.489       .  S
C965       C1180   1.539       .  S
O966        C979   1.253       .  A
O967       Co975   1.994       .  S
O968        C981   1.255       .  A
O968       Co976   2.006       .  S
O969        C982   1.259       .  A
O969       Co977   1.961       .  S
O970        C982   1.273       .  A
O970       Co975   2.015       .  S
O971        C981   1.250   1_554  A
O971       Co974   2.000   1_554  S
O972        C979   1.266       .  A
O972       Co977   2.006       .  S
O973        C980   1.252       .  A
O973       Co976   2.009       .  S
Co975       O978   1.939       .  S
Co977       O978   2.100       .  S
C979       C1615   1.489       .  S
C980       C1260   1.492   1_556  S
C981       C1212   1.512       .  S
C982       C1452   1.466       .  S
O983        C991   1.263       .  A
O983      Co1003   2.009   1_556  S
O984        C992   1.272       .  A
O984      Co1004   2.007       .  S
O985        C993   1.289       .  A
O985      Co1005   2.068       .  S
O986        C994   1.273       .  A
O986      Co1006   1.957       .  S
O987        C993   1.269       .  A
O988      Co1003   2.018       .  S
O989        C992   1.255       .  A
O989      Co1006   1.959       .  S
O990        C991   1.257       .  A
O990      Co1005   1.992       .  S
C991       C1564   1.506       .  S
C992       C1228   1.494       .  S
C993       C1535   1.464       .  S
C994       C1132   1.468       .  S
O995       C1008   1.254       .  A
O996      Co1004   2.089       .  S
O997       C1010   1.310       .  A
O997      Co1005   2.106   1_554  S
O998       C1011   1.267       .  A
O998      Co1006   2.002       .  S
O999       C1011   1.257       .  A
O999      Co1004   1.963       .  S
O1000      C1010   1.276       .  A
O1000     Co1003   1.886       .  S
O1001      C1008   1.238       .  A
O1001     Co1006   1.949       .  S
O1002      C1009   1.270       .  A
O1002     Co1005   1.901       .  S
Co1004     O1007   1.993       .  S
Co1006     O1007   2.059       .  S
C1008      C1548   1.479       .  S
C1009      C1151   1.491       .  S
C1010      C1167   1.496       .  S
C1011      C1519   1.483       .  S
O1012      C1020   1.298       .  A
O1012     Co1032   2.118   1_554  S
O1013      C1021   1.274       .  A
O1013     Co1033   2.031       .  S
O1014      C1022   1.270       .  A
O1014     Co1034   1.994   1_554  S
O1015      C1023   1.244       .  A
O1015     Co1035   1.956       .  S
O1016     Co1033   2.049       .  S
O1017      C1023   1.257       .  A
O1018      C1021   1.247       .  A
O1018     Co1035   1.915       .  S
O1019      C1020   1.266   1_556  A
O1019     Co1034   1.881       .  S
C1020      C1164   1.489       .  S
C1021      C1359   1.468       .  S
C1022      C1119   1.517       .  S
C1023      C1583   1.468       .  S
O1024     Co1032   1.988       .  S
O1025      C1038   1.261       .  A
O1026      C1039   1.294       .  A
O1026     Co1034   2.101       .  S
O1027      C1040   1.272       .  A
O1027     Co1035   2.041       .  S
O1028      C1040   1.251       .  A
O1028     Co1033   1.956       .  S
O1029      C1039   1.264       .  A
O1029     Co1032   1.884       .  S
O1030      C1037   1.283       .  A
O1030     Co1035   2.062       .  S
O1031      C1038   1.266       .  A
O1031     Co1034   2.017       .  S
Co1033     O1036   2.045       .  S
Co1035     O1036   2.048       .  S
C1037      C1183   1.532       .  S
C1038      C1375   1.500       .  S
C1039      C1599   1.461       .  S
C1040      C1244   1.505       .  S
O1041      C1049   1.259       .  A
O1041     Co1061   1.969       .  S
O1042      C1050   1.258       .  A
O1042     Co1062   1.971       .  S
O1043      C1051   1.271       .  A
O1043     Co1063   2.029       .  S
O1044      C1052   1.284       .  A
O1044     Co1064   2.088       .  S
O1045      C1051   1.259       .  A
O1046     Co1061   1.976       .  S
O1047      C1050   1.272       .  A
O1047     Co1064   2.049       .  S
O1048      C1049   1.263       .  A
O1048     Co1063   2.015       .  S
C1049      C1503   1.471       .  S
C1050      C1100   1.523       .  S
C1051      C1404   1.488       .  S
C1052      C1196   1.547       .  S
O1053      C1066   1.260       .  A
O1054     Co1062   2.070       .  S
O1055      C1068   1.255       .  A
O1055     Co1063   1.948   1_554  S
O1056      C1069   1.252       .  A
O1056     Co1064   1.955       .  S
O1057      C1069   1.273       .  A
O1057     Co1062   2.030       .  S
O1058      C1068   1.276   1_556  A
O1058     Co1061   2.062       .  S
O1059      C1066   1.246       .  A
O1059     Co1064   1.934       .  S
O1060      C1067   1.255       .  A
O1060     Co1063   1.963   1_554  S
Co1062     O1065   2.124       .  S
Co1064     O1065   2.115       .  S
C1066      C1487   1.458       .  S
C1067      C1116   1.519       .  S
C1068      C1148   1.484       .  S
C1069      C1391   1.494       .  S
O1070      C1078   1.287       .  A
O1070     Co1090   2.073       .  S
O1071      C1079   1.271       .  A
O1071     Co1091   2.033       .  S
O1072      C1080   1.230       .  A
O1072     Co1092   1.916       .  S
O1073      C1081   1.264       .  A
O1073     Co1093   1.971       .  S
O1074     Co1091   2.016       .  S
O1075      C1081   1.264       .  A
O1076      C1079   1.251       .  A
O1076     Co1093   1.957       .  S
O1077      C1078   1.263       .  A
O1077     Co1092   1.954       .  S
C1078      C1215   1.501       .  S
C1079      C1295   1.472       .  S
C1080      C1276   1.443   1_556  S
C1081      C1644   1.474       .  S
O1082     Co1090   1.959       .  S
O1083      C1096   1.273       .  A
O1084      C1097   1.239       .  A
O1084     Co1092   1.934       .  S
O1085      C1098   1.283       .  A
O1085     Co1093   2.070       .  S
O1086      C1098   1.264       .  A
O1086     Co1091   1.968       .  S
O1087      C1097   1.255       .  A
O1087     Co1090   1.989       .  S
O1088      C1095   1.267       .  A
O1088     Co1093   2.006       .  S
O1089      C1096   1.288       .  A
O1089     Co1092   2.049       .  S
Co1091     O1094   1.968       .  S
Co1093     O1094   2.055       .  S
C1095      C1135   1.481       .  S
C1096      C1311   1.479       .  S
C1097      C1663   1.455       .  S
C1098      C1103   1.524       .  S
C1099      C1100   1.412       .  A
C1099      C1104   1.419       .  A
C1099      H1106   1.083       .  S
C1100      C1101   1.425       .  A
C1101      C1102   1.417       .  A
C1101      C1108   1.508       .  S
C1102      C1103   1.412       .  A
C1102      H1107   1.084       .  S
C1103      C1104   1.424       .  A
C1104      C1105   1.506       .  S
C1105      H1109   1.111       .  S
C1105      H1110   1.108       .  S
C1108      H1112   1.110       .  S
C1108      H1114   1.111       .  S
C1115      C1116   1.413       .  A
C1115      C1120   1.417       .  A
C1115      H1122   1.083       .  S
C1116      C1117   1.421   1_554  A
C1117      C1118   1.417       .  A
C1117      C1124   1.506       .  S
C1118      C1119   1.412   1_556  A
C1118      H1123   1.084       .  S
C1119      C1120   1.420       .  A
C1121      H1125   1.111       .  S
C1121      H1127   1.111       .  S
C1124      H1128   1.108       .  S
C1124      H1130   1.111       .  S
C1131      C1136   1.400   1_565  A
C1131      H1138   1.084       .  S
C1132      C1133   1.412       .  A
C1133      C1134   1.401   1_565  A
C1133      C1140   1.508       .  S
C1134      C1135   1.405       .  A
C1134      H1139   1.084       .  S
C1136      C1137   1.510       .  S
C1137      H1141   1.111       .  S
C1137      H1143   1.110       .  S
C1140      H1144   1.111       .  S
C1140      H1145   1.109       .  S
C1140      H1146   1.111       .  S
C1147      C1148   1.403       .  A
C1147      C1152   1.413       .  A
C1147      H1154   1.084       .  S
C1148      C1149   1.418   1_554  A
C1149      C1150   1.400       .  A
C1149      C1156   1.510       .  S
C1150      C1151   1.400       .  A
C1150      H1155   1.082       .  S
C1151      C1152   1.421   1_556  A
C1152      C1153   1.506       .  S
C1153      H1157   1.111       .  S
C1153      H1158   1.109       .  S
C1156      H1160   1.102       .  S
C1156      H1162   1.105       .  S
C1163      C1164   1.406       .  A
C1163      C1168   1.411       .  A
C1163      H1170   1.084       .  S
C1165      C1166   1.399       .  A
C1165      C1172   1.511       .  S
C1166      H1171   1.083       .  S
C1167      C1168   1.422       .  A
C1168      C1169   1.508       .  S
C1169      H1173   1.111       .  S
C1169      H1174   1.110       .  S
C1169      H1175   1.110       .  S
C1172      H1176   1.110       .  S
C1172      H1178   1.111       .  S
C1179      C1180   1.416       .  A
C1179      C1184   1.425   1_545  A
C1179      H1186   1.083       .  S
C1181      C1182   1.420   1_545  A
C1181      C1188   1.500       .  S
C1182      H1187   1.083       .  S
C1183      C1184   1.425       .  A
C1184      C1185   1.508       .  S
C1185      H1189   1.111       .  S
C1185      H1191   1.106       .  S
C1188      H1192   1.110       .  S
C1188      H1194   1.110       .  S
C1195      C1196   1.415       .  A
C1195      C1200   1.431   1_455  A
C1195      H1202   1.083       .  S
C1196      C1197   1.430       .  A
C1197      C1198   1.426   1_455  A
C1197      C1204   1.508       .  S
C1198      C1199   1.414       .  A
C1198      H1203   1.083       .  S
C1199      C1200   1.429       .  A
C1200      C1201   1.506       .  S
C1201      H1205   1.111       .  S
C1201      H1207   1.108       .  S
C1204      H1209   1.110       .  S
C1204      H1210   1.110       .  S
C1211      C1212   1.406       .  A
C1211      C1216   1.406       .  A
C1211      H1218   1.084       .  S
C1213      C1214   1.419       .  A
C1213      C1220   1.502       .  S
C1214      H1219   1.084       .  S
C1215      C1216   1.419       .  A
C1216      C1217   1.509       .  S
C1217      H1221   1.111       .  S
C1217      H1222   1.108       .  S
C1217      H1223   1.109       .  S
C1220      H1224   1.110       .  S
C1220      H1225   1.105       .  S
C1220      H1226   1.111       .  S
C1227      C1228   1.398       .  A
C1227      C1232   1.407   1_455  A
C1227      H1234   1.083       .  S
C1228      C1229   1.431       .  A
C1229      C1230   1.401   1_455  A
C1229      C1236   1.513       .  S
C1230      C1231   1.398       .  A
C1230      H1235   1.084       .  S
C1231      C1232   1.427       .  A
C1232      C1233   1.509       .  S
C1233      H1237   1.111       .  S
C1233      H1239   1.109       .  S
C1236      H1241   1.110       .  S
C1236      H1242   1.111       .  S
C1243      C1244   1.409       .  A
C1243      C1248   1.414       .  A
C1243      H1250   1.084       .  S
C1244      C1245   1.426       .  A
C1245      C1246   1.404       .  A
C1245      C1252   1.512       .  S
C1246      C1247   1.406       .  A
C1246      H1251   1.084       .  S
C1247      C1248   1.422       .  A
C1248      C1249   1.508       .  S
C1249      H1253   1.111       .  S
C1249      H1255   1.108       .  S
C1252      H1257   1.110       .  S
C1252      H1258   1.111       .  S
C1259      C1264   1.415       .  A
C1259      H1266   1.083       .  S
C1260      C1261   1.414   1_554  A
C1261      C1262   1.403       .  A
C1261      C1268   1.507       .  S
C1262      C1263   1.406   1_556  A
C1262      H1267   1.084       .  S
C1264      C1265   1.506       .  S
C1265      H1269   1.108       .  S
C1265      H1271   1.107       .  S
C1268      H1272   1.107       .  S
C1268      H1273   1.109       .  S
C1268      H1274   1.111       .  S
C1275      C1276   1.397       .  A
C1275      C1280   1.393       .  A
C1275      H1282   1.085       .  S
C1276      C1277   1.409   1_554  A
C1277      C1278   1.393       .  A
C1278      C1279   1.397   1_556  A
C1279      C1280   1.406       .  A
C1280      C1281   1.502       .  S
C1281      H1285   1.111       .  S
C1281      H1287   1.110       .  S
C1284      H1288   1.110       .  S
C1284      H1290   1.111       .  S
C1291      C1292   1.404       .  A
C1291      C1296   1.397       .  A
C1291      H1298   1.084       .  S
C1292      C1293   1.415       .  A
C1293      C1294   1.406       .  A
C1293      C1300   1.507       .  S
C1294      C1295   1.402       .  A
C1294      H1299   1.083       .  S
C1295      C1296   1.411       .  A
C1296      C1297   1.497       .  S
C1297      H1301   1.111       .  S
C1297      H1302   1.109       .  S
C1297      H1303   1.109       .  S
C1300      H1304   1.108       .  S
C1300      H1305   1.110       .  S
C1300      H1306   1.111       .  S
C1307      C1308   1.398       .  A
C1307      C1312   1.400       .  A
C1307      H1314   1.085       .  S
C1308      C1309   1.416       .  A
C1309      C1310   1.398       .  A
C1309      C1316   1.507       .  S
C1310      C1311   1.402       .  A
C1310      H1315   1.084       .  S
C1311      C1312   1.423       .  A
C1312      C1313   1.510       .  S
C1313      H1317   1.111       .  S
C1313      H1318   1.109       .  S
C1313      H1319   1.110       .  S
C1316      H1320   1.105       .  S
C1316      H1321   1.108       .  S
C1316      H1322   1.111       .  S
C1323      C1324   1.411       .  A
C1323      C1328   1.400       .  A
C1323      H1330   1.083       .  S
C1324      C1325   1.410       .  A
C1325      C1326   1.401       .  A
C1325      C1332   1.508       .  S
C1326      C1327   1.409       .  A
C1326      H1331   1.084       .  S
C1327      C1328   1.410       .  A
C1328      C1329   1.508       .  S
C1329      H1333   1.110       .  S
C1329      H1334   1.110       .  S
C1329      H1335   1.108       .  S
C1332      H1336   1.109       .  S
C1332      H1337   1.110       .  S
C1332      H1338   1.111       .  S
C1339      C1340   1.411       .  A
C1339      C1344   1.406       .  A
C1339      H1346   1.083       .  S
C1340      C1341   1.419       .  A
C1341      C1342   1.414       .  A
C1341      C1348   1.501       .  S
C1342      C1343   1.408       .  A
C1342      H1347   1.084       .  S
C1343      C1344   1.418       .  A
C1344      C1345   1.510       .  S
C1345      H1349   1.111       .  S
C1345      H1350   1.110       .  S
C1345      H1351   1.109       .  S
C1348      H1352   1.110       .  S
C1348      H1353   1.109       .  S
C1348      H1354   1.111       .  S
C1355      C1356   1.397       .  A
C1355      C1360   1.395       .  A
C1355      H1362   1.085       .  S
C1356      C1357   1.419       .  A
C1357      C1358   1.400       .  A
C1357      C1364   1.505       .  S
C1358      C1359   1.397       .  A
C1358      H1363   1.084       .  S
C1359      C1360   1.421       .  A
C1360      C1361   1.512       .  S
C1361      H1365   1.111       .  S
C1361      H1366   1.109       .  S
C1361      H1367   1.110       .  S
C1364      H1368   1.107       .  S
C1364      H1369   1.108       .  S
C1364      H1370   1.111       .  S
C1371      C1372   1.409       .  A
C1371      C1376   1.410       .  A
C1371      H1378   1.084       .  S
C1372      C1373   1.421       .  A
C1373      C1374   1.405       .  A
C1373      C1380   1.509       .  S
C1374      C1375   1.407       .  A
C1374      H1379   1.084       .  S
C1375      C1376   1.420       .  A
C1376      C1377   1.509       .  S
C1377      H1381   1.111       .  S
C1377      H1382   1.110       .  S
C1377      H1383   1.111       .  S
C1380      H1384   1.110       .  S
C1380      H1385   1.110       .  S
C1380      H1386   1.111       .  S
C1387      C1388   1.403       .  A
C1387      C1392   1.409       .  A
C1387      H1394   1.084       .  S
C1388      C1389   1.427       .  A
C1389      C1390   1.400       .  A
C1389      C1396   1.505       .  S
C1390      C1391   1.398       .  A
C1390      H1395   1.084       .  S
C1391      C1392   1.425       .  A
C1392      C1393   1.508       .  S
C1393      H1397   1.108       .  S
C1393      H1398   1.110       .  S
C1393      H1399   1.111       .  S
C1396      H1400   1.102       .  S
C1396      H1401   1.108       .  S
C1396      H1402   1.111       .  S
C1403      C1404   1.407       .  A
C1403      C1408   1.401       .  A
C1403      H1410   1.084       .  S
C1404      C1405   1.418       .  A
C1405      C1406   1.403       .  A
C1405      C1412   1.509       .  S
C1406      C1407   1.406       .  A
C1406      H1411   1.084       .  S
C1407      C1408   1.418       .  A
C1408      C1409   1.509       .  S
C1409      H1413   1.111       .  S
C1409      H1414   1.110       .  S
C1409      H1415   1.110       .  S
C1412      H1416   1.108       .  S
C1412      H1417   1.111       .  S
C1412      H1418   1.111       .  S
C1419      C1420   1.411       .  A
C1419      C1424   1.397       .  A
C1419      H1426   1.084       .  S
C1420      C1421   1.419       .  A
C1421      C1422   1.411       .  A
C1421      C1428   1.506       .  S
C1422      C1423   1.403       .  A
C1422      H1427   1.083       .  S
C1423      C1424   1.406       .  A
C1424      C1425   1.508       .  S
C1425      H1429   1.111       .  S
C1425      H1430   1.109       .  S
C1425      H1431   1.109       .  S
C1428      H1432   1.110       .  S
C1428      H1433   1.109       .  S
C1428      H1434   1.110       .  S
C1435      C1436   1.406       .  A
C1435      C1440   1.400       .  A
C1435      H1442   1.084       .  S
C1436      C1437   1.414       .  A
C1437      C1438   1.394       .  A
C1437      C1444   1.510       .  S
C1438      C1439   1.402       .  A
C1438      H1443   1.082       .  S
C1439      C1440   1.404       .  A
C1440      C1441   1.500       .  S
C1441      H1445   1.111       .  S
C1441      H1446   1.108       .  S
C1441      H1447   1.110       .  S
C1444      H1448   1.105   1_655  S
C1444      H1449   1.110       .  S
C1444      H1450   1.111       .  S
C1451      C1452   1.397       .  A
C1451      C1456   1.404       .  A
C1451      H1458   1.083       .  S
C1452      C1453   1.409       .  A
C1453      C1454   1.397       .  A
C1453      C1460   1.505       .  S
C1454      C1455   1.407       .  A
C1454      H1459   1.084       .  S
C1455      C1456   1.424       .  A
C1456      C1457   1.509       .  S
C1457      H1461   1.111   1_655  S
C1457      H1462   1.110       .  S
C1457      H1463   1.108   1_655  S
C1460      H1464   1.110       .  S
C1460      H1465   1.107       .  S
C1460      H1466   1.111       .  S
C1467      C1468   1.397       .  A
C1467      C1472   1.404       .  A
C1467      H1474   1.084       .  S
C1468      C1469   1.420       .  A
C1469      C1470   1.411       .  A
C1469      C1476   1.508       .  S
C1470      C1471   1.404       .  A
C1470      H1475   1.084       .  S
C1471      C1472   1.425       .  A
C1472      C1473   1.505   1_655  S
C1473      H1477   1.110       .  S
C1473      H1478   1.103       .  S
C1473      H1479   1.109       .  S
C1476      H1480   1.108       .  S
C1476      H1481   1.110       .  S
C1476      H1482   1.111       .  S
C1483      C1484   1.398       .  A
C1483      C1488   1.389       .  A
C1483      H1490   1.085       .  S
C1484      C1485   1.415       .  A
C1485      C1486   1.399       .  A
C1485      C1492   1.509       .  S
C1486      C1487   1.401       .  A
C1486      H1491   1.084       .  S
C1487      C1488   1.413       .  A
C1488      C1489   1.510       .  S
C1489      H1493   1.111       .  S
C1489      H1494   1.107       .  S
C1489      H1495   1.111       .  S
C1492      H1496   1.110       .  S
C1492      H1497   1.109       .  S
C1492      H1498   1.111       .  S
C1499      C1500   1.407       .  A
C1499      C1504   1.403       .  A
C1499      H1506   1.084       .  S
C1500      C1501   1.410       .  A
C1501      C1502   1.397       .  A
C1501      C1508   1.509       .  S
C1502      C1503   1.406       .  A
C1502      H1507   1.083       .  S
C1503      C1504   1.407       .  A
C1504      C1505   1.504       .  S
C1505      H1509   1.111       .  S
C1505      H1510   1.109       .  S
C1505      H1511   1.108       .  S
C1508      H1512   1.111       .  S
C1508      H1513   1.107       .  S
C1508      H1514   1.109       .  S
C1515      C1516   1.402       .  A
C1515      C1520   1.394       .  A
C1515      H1522   1.084       .  S
C1516      C1517   1.416       .  A
C1517      C1518   1.407       .  A
C1517      C1524   1.508       .  S
C1518      C1519   1.407       .  A
C1518      H1523   1.084       .  S
C1519      C1520   1.421       .  A
C1520      C1521   1.513       .  S
C1521      H1525   1.111       .  S
C1521      H1526   1.109       .  S
C1521      H1527   1.110       .  S
C1524      H1528   1.111       .  S
C1524      H1529   1.109       .  S
C1524      H1530   1.111       .  S
C1531      C1532   1.400       .  A
C1531      C1536   1.394       .  A
C1531      H1538   1.085       .  S
C1532      C1533   1.402       .  A
C1533      C1534   1.399       .  A
C1533      C1540   1.505       .  S
C1534      C1535   1.407       .  A
C1534      H1539   1.084       .  S
C1535      C1536   1.410       .  A
C1536      C1537   1.506       .  S
C1537      H1541   1.111       .  S
C1537      H1542   1.104       .  S
C1537      H1543   1.109       .  S
C1540      H1544   1.110       .  S
C1540      H1545   1.109       .  S
C1540      H1546   1.111       .  S
C1547      C1548   1.398       .  A
C1547      C1552   1.401       .  A
C1547      H1554   1.084       .  S
C1548      C1549   1.422       .  A
C1549      C1550   1.399       .  A
C1549      C1556   1.510       .  S
C1550      C1551   1.398       .  A
C1550      H1555   1.084       .  S
C1551      C1552   1.422       .  A
C1552      C1553   1.506       .  S
C1553      H1557   1.111       .  S
C1553      H1558   1.109       .  S
C1553      H1559   1.110       .  S
C1556      H1560   1.111       .  S
C1556      H1561   1.109       .  S
C1556      H1562   1.111       .  S
C1563      C1564   1.404       .  A
C1563      C1568   1.416       .  A
C1563      H1570   1.084       .  S
C1564      C1565   1.424       .  A
C1565      C1566   1.411       .  A
C1565      C1572   1.509       .  S
C1566      C1567   1.405       .  A
C1566      H1571   1.084       .  S
C1567      C1568   1.429       .  A
C1568      C1569   1.508       .  S
C1569      H1573   1.111       .  S
C1569      H1574   1.110       .  S
C1569      H1575   1.110   1_565  S
C1572      H1576   1.110       .  S
C1572      H1577   1.111       .  S
C1572      H1578   1.111       .  S
C1579      C1580   1.409       .  A
C1579      C1584   1.395       .  A
C1579      H1586   1.084       .  S
C1580      C1581   1.409       .  A
C1581      C1582   1.403       .  A
C1581      C1588   1.505       .  S
C1582      C1583   1.407       .  A
C1582      H1587   1.084       .  S
C1583      C1584   1.406       .  A
C1584      C1585   1.505       .  S
C1585      H1589   1.111       .  S
C1585      H1590   1.107       .  S
C1585      H1591   1.106       .  S
C1588      H1592   1.105       .  S
C1588      H1593   1.110       .  S
C1588      H1594   1.111       .  S
C1595      C1596   1.398       .  A
C1595      C1600   1.393       .  A
C1595      H1602   1.086       .  S
C1596      C1597   1.414       .  A
C1597      C1598   1.400       .  A
C1597      C1604   1.506       .  S
C1598      C1599   1.400       .  A
C1598      H1603   1.084       .  S
C1599      C1600   1.411       .  A
C1600      C1601   1.503       .  S
C1601      H1605   1.111       .  S
C1601      H1606   1.106       .  S
C1601      H1607   1.109       .  S
C1604      H1608   1.110   1_565  S
C1604      H1609   1.104       .  S
C1604      H1610   1.110       .  S
C1611      C1612   1.405       .  A
C1611      C1616   1.400       .  A
C1611      H1618   1.084       .  S
C1612      C1613   1.420       .  A
C1613      C1614   1.405       .  A
C1613      C1620   1.508       .  S
C1614      C1615   1.405       .  A
C1614      H1619   1.084       .  S
C1615      C1616   1.422       .  A
C1616      C1617   1.512       .  S
C1617      H1621   1.111       .  S
C1617      H1622   1.109       .  S
C1617      H1623   1.107       .  S
C1620      H1624   1.107       .  S
C1620      H1625   1.110       .  S
C1620      H1626   1.111       .  S
C1627      C1628   1.407       .  A
C1627      C1632   1.407       .  A
C1627      H1634   1.082       .  S
C1628      C1629   1.420       .  A
C1629      C1630   1.390       .  A
C1629      C1636   1.513       .  S
C1630      C1631   1.396       .  A
C1630      H1635   1.076       .  S
C1631      C1632   1.415       .  A
C1632      C1633   1.505       .  S
C1633      H1637   1.111       .  S
C1633      H1638   1.109       .  S
C1633      H1639   1.110       .  S
C1636      H1640   1.110       .  S
C1636      H1641   1.110       .  S
C1636      H1642   1.111       .  S
C1643      C1644   1.401       .  A
C1643      C1648   1.399       .  A
C1643      H1650   1.084       .  S
C1644      C1645   1.417       .  A
C1645      C1646   1.401       .  A
C1645      C1652   1.507       .  S
C1646      C1647   1.402       .  A
C1646      H1651   1.085   1_545  S
C1647      C1648   1.414       .  A
C1648      C1649   1.508       .  S
C1649      H1653   1.111       .  S
C1649      H1654   1.109       .  S
C1649      H1655   1.108       .  S
C1652      H1656   1.110       .  S
C1652      H1657   1.108       .  S
C1652      H1658   1.111   1_545  S
C1659      C1660   1.405       .  A
C1659      C1664   1.401       .  A
C1659      H1666   1.084       .  S
C1660      C1661   1.405       .  A
C1661      C1662   1.387       .  A
C1661      C1668   1.496       .  S
C1662      C1663   1.400       .  A
C1662      H1667   1.084       .  S
C1663      C1664   1.406       .  A
C1664      C1665   1.505       .  S
C1665      H1669   1.111       .  S
C1665      H1670   1.110       .  S
C1665      H1671   1.109       .  S
C1668      H1672   1.108       .  S
C1668      H1673   1.106       .  S
C1668      H1674   1.112       .  S
