geometry optimzed in LAMMPS
_audit_creation_date              2020-11-30 
_audit_creation_method            'lammps2cif' 
_symmetry_space_group_name_H-M    'P1' 
_symmetry_Int_Tables_number       1 
_symmetry_cell_setting            triclinic 
loop_ 
_symmetry_equiv_pos_as_xyz 
  x,y,z 
_cell_length_a                    36.91385387513165 
_cell_length_b                    36.839497094024374 
_cell_length_c                    48.3186711350888 
_cell_angle_alpha                 91.39823027922226 
_cell_angle_beta                  89.42568826506198 
_cell_angle_gamma                 120.72828043138995 
loop_ 
_atom_site_label 
_atom_site_type_symbol 
_atom_site_fract_x 
_atom_site_fract_y 
_atom_site_fract_z 
_atom_site_charge 
C1          C  0.33442169  0.16437969  0.00305836    -0.03620
C2          C  0.33051577  0.16731188  0.12854296    -0.03620
C3          C  0.16203656  0.33573371  0.37938608    -0.03620
C4          C  0.16327254  0.34851745  0.25544820    -0.03620
N5          N  0.06179788  0.09629363  0.41460930    -0.07250
N6          N  0.07694258  0.12813203  0.39758748    -0.59370
N7          N  0.09538958  0.06679689  0.46868374    -0.06930
N8          N  0.12902449  0.08404801  0.48479102    -0.61500
N9          N  0.10430495  0.05681517  0.44423171    -0.06530
N10         N  0.14398671  0.06685755  0.44317233    -0.59350
N11         N  0.05387007  0.10745241  0.43891621    -0.06210
N12         N  0.06319260  0.14705056  0.43890354    -0.61850
C13         C  0.07700240  0.15930663  0.41290977     0.94930
C14         C  0.15868333  0.08332781  0.46857896     0.94700
N15         N  0.48121374  0.49001762  0.01128720    -0.07440
N16         N  0.47213698  0.47517506  0.03664957    -0.59950
N17         N  0.47760019  0.06629452  0.47806038    -0.05560
N18         N  0.47300449  0.09943692  0.47819781    -0.61200
N19         N  0.44081419  0.03106226  0.47771996    -0.07470
N20         N  0.41018983  0.03975716  0.47765920    -0.60220
N21         N  0.01769830  0.02574301  0.01114503    -0.05200
N22         N  0.03385017  0.03590217  0.03645447    -0.61290
Mn23       Mn  0.03667114  0.06697179  0.47483729     1.18440
C24         C  0.00542116  0.00376025  0.05212139     0.97010
C25         C  0.43094453  0.08265475  0.47810867     0.97670
N26         N  0.06030942  0.47789451  0.40518464    -0.07490
N27         N  0.09298556  0.47272786  0.40283997    -0.63790
N28         N  0.48165639  0.48037539  0.37342778    -0.06290
N29         N  0.46457118  0.47178988  0.34835516    -0.64470
N30         N  0.01732262  0.01694582  0.37363920    -0.06990
N31         N  0.02505319  0.03387187  0.34890394    -0.64060
N32         N  0.02496112  0.44128503  0.40571256    -0.05890
N33         N  0.03295811  0.41023436  0.40371097    -0.64750
Mn34       Mn  0.06132677  0.03732602  0.40893475     1.10660
C35         C  0.07557690  0.43042947  0.40178500     0.98230
C36         C  0.49176842  0.00575054  0.33335506     0.98310
N37         N  0.39495565  0.44893949  0.43943389    -0.07000
N38         N  0.35539618  0.43964848  0.43974536    -0.62370
N39         N  0.44712467  0.39830672  0.44646874    -0.06320
N40         N  0.43955563  0.35925304  0.44716450    -0.59100
N41         N  0.43735356  0.40911437  0.47035534    -0.07630
N42         N  0.42283940  0.37737522  0.48762585    -0.61940
N43         N  0.40385223  0.43711680  0.41563160    -0.06620
N44         N  0.37023981  0.41919819  0.39942092    -0.59130
Mn45       Mn  0.43771231  0.46928256  0.47525508     1.20190
Mn46       Mn  0.46381525  0.43832700  0.40974657     1.10090
Cl47       Cl  0.49984098  0.00281783  0.44223675    -0.87100
C48         C  0.34045750  0.42163956  0.41458784     0.95240
C49         C  0.42495742  0.34657481  0.47303053     0.95030
N50         N  0.43822887  0.03392955  0.15634895    -0.07250
N51         N  0.40654568  0.04098967  0.15539337    -0.59370
N52         N  0.01663467  0.02896213  0.12395186    -0.06930
N53         N  0.03308743  0.03800162  0.09877653    -0.61500
N54         N  0.48066949  0.49266849  0.12334812    -0.06530
N55         N  0.47218396  0.47643815  0.09789956    -0.59350
N56         N  0.47435721  0.06995758  0.15704238    -0.06210
N57         N  0.46802566  0.10211868  0.15645792    -0.61850
C58         C  0.42557469  0.08370799  0.15563725     0.94930
C59         C  0.00530819  0.00465476  0.08278534     0.94700
N60         N  0.10227669  0.06205816  0.19158832    -0.07440
N61         N  0.14090951  0.06871359  0.19213812    -0.59950
N62         N  0.05103576  0.11371897  0.19808896    -0.05560
N63         N  0.06004165  0.15334020  0.19878200    -0.61200
N64         N  0.05959489  0.10365575  0.22214022    -0.07470
N65         N  0.07524419  0.13654013  0.23946265    -0.60220
N66         N  0.09392475  0.07176948  0.16736303    -0.05200
N67         N  0.12708763  0.08555229  0.15096834    -0.61290
Mn68       Mn  0.03462926  0.07181469  0.16104098     1.18440
C69         C  0.15576636  0.08269690  0.16661980     0.97010
C70         C  0.07485913  0.16712361  0.22470486     0.97670
N71         N  0.43624473  0.41302043  0.16302482    -0.07490
N72         N  0.42204671  0.38019926  0.14570845    -0.63790
N73         N  0.40106850  0.44408843  0.21769927    -0.06290
N74         N  0.36758420  0.42963955  0.23392808    -0.64470
N75         N  0.39271144  0.45392871  0.19349915    -0.06990
N76         N  0.35373032  0.44626055  0.19268740    -0.64060
N77         N  0.44519109  0.40342534  0.18706587    -0.05890
N78         N  0.43753591  0.36433927  0.18650511    -0.64750
Mn79       Mn  0.43633808  0.47285991  0.15850839     1.10660
C80         C  0.42358419  0.35012665  0.16054420     0.98230
C81         C  0.33858562  0.43174387  0.21805592     0.98310
N82         N  0.01428574  0.02318084  0.26204632    -0.07000
N83         N  0.02328257  0.03746151  0.28794461    -0.62370
N84         N  0.02226364  0.44725736  0.22744340    -0.06320
N85         N  0.03031003  0.41612723  0.22797053    -0.59100
N86         N  0.05760348  0.48395468  0.22887412    -0.07630
N87         N  0.09027605  0.47875957  0.23058587    -0.61940
N88         N  0.47857944  0.48659081  0.26106167    -0.06620
N89         N  0.46286798  0.47551249  0.28626785    -0.59130
Mn90       Mn  0.05879796  0.04381194  0.22669635     1.20190
Mn91       Mn  0.46111010  0.44464392  0.22384586     1.10090
Cl92       Cl  0.49764633  0.00834225  0.19256308    -0.87100
C93         C  0.49074897  0.00778274  0.30282814     0.95240
C94         C  0.07294201  0.43644190  0.22963055     0.95030
C95         C  0.07375666  0.23360024  0.23171059    -0.10290
C96         C  0.09562083  0.21202824  0.23346435     0.05910
C97         C  0.13753935  0.23414889  0.24254950    -0.03760
C98         C  0.15754193  0.27746217  0.24796015    -0.08500
C99         C  0.13689077  0.30081360  0.24584626     0.05020
C100        C  0.09260007  0.27658215  0.23933519    -0.03530
Br101      Br  0.05170019  0.29394453  0.24416551    -0.03230
H102        H  0.04076657  0.21606501  0.22580280     0.08930
H103        H  0.19024585  0.29316480  0.25370656     0.06950
Br104      Br  0.17000380  0.20748353  0.24726534    -0.03650
C105        C  0.11759841  0.42402979  0.26045843    -0.10290
C106        C  0.09738556  0.41592297  0.23497707     0.05910
C107        C  0.10362558  0.39145892  0.21496983    -0.04060
C108        C  0.12749941  0.37296132  0.22157720    -0.08500
C109        C  0.14294300  0.37557249  0.24872763     0.05020
C110        C  0.14100844  0.40549934  0.26744295    -0.03530
Br111      Br  0.17159153  0.42846083  0.30171093    -0.03230
H112        H  0.11531866  0.44550544  0.27516476     0.08930
H113        H  0.13080565  0.35342890  0.20595262     0.06950
Br114      Br  0.07952309  0.38191395  0.17866368    -0.03650
C115        C  0.26282844  0.38080968  0.20927036    -0.10290
C116        C  0.29391523  0.41397805  0.22543805     0.05910
C117        C  0.28157206  0.43063485  0.24739092    -0.04060
C118        C  0.23890987  0.41154201  0.25438503    -0.08500
C119        C  0.20782221  0.37311166  0.24163057     0.05020
C120        C  0.22010137  0.36079342  0.21660038    -0.03530
Br121      Br  0.18214496  0.32109449  0.18915682    -0.03230
H122        H  0.27195375  0.37006932  0.19085601     0.08930
H123        H  0.23116793  0.42449345  0.27198700     0.06950
Br124      Br  0.32202056  0.47794800  0.26939585    -0.03650
C125        C  0.11779134  0.25526699  0.36903357    -0.10290
C126        C  0.13892385  0.28906627  0.38861732     0.05910
C127        C  0.14039085  0.27791234  0.41655227    -0.04060
C128        C  0.11958534  0.23551538  0.42383844    -0.08500
C129        C  0.09719100  0.20317178  0.40422208     0.05020
C130        C  0.09630599  0.21328891  0.37663558    -0.03530
Br131      Br  0.06477473  0.17153959  0.34824981    -0.03230
H132        H  0.11782207  0.26013437  0.34722681     0.08930
H133        H  0.12079135  0.22779735  0.44517807     0.06950
Br134      Br  0.16574744  0.31759780  0.44704525    -0.03650
C135        C  0.15700145  0.40180661  0.37997142    -0.10290
C136        C  0.13959121  0.36011939  0.38976905     0.05910
C137        C  0.10084666  0.34366682  0.40518237    -0.04060
C138        C  0.08244042  0.36839018  0.40953274    -0.08500
C139        C  0.09975631  0.40868587  0.39885309     0.05020
C140        C  0.13814487  0.42594593  0.38451071    -0.03530
Br141      Br  0.16548609  0.48103639  0.36865188    -0.03230
H142        H  0.18570342  0.41563573  0.36785761     0.08930
H143        H  0.05281210  0.35514642  0.42060721     0.06950
Br144      Br  0.06352564  0.28695316  0.41753027    -0.03650
C145        C  0.27737442  0.36110631  0.39295688    -0.10290
C146        C  0.29543854  0.40016310  0.40688827     0.05910
C147        C  0.26963519  0.41641714  0.41458509    -0.04060
C148        C  0.22707987  0.39465636  0.40708328    -0.08500
C149        C  0.20861098  0.35670719  0.39083184     0.05020
C150        C  0.23472229  0.33882343  0.38557758    -0.03530
Br151      Br  0.21719878  0.28626308  0.36589972    -0.03230
H152        H  0.29667772  0.34751496  0.38785112     0.08930
H153        H  0.20892297  0.40813412  0.41472832     0.06950
Br154      Br  0.29096302  0.46949189  0.43418204    -0.03650
C155        C  0.20033933  0.35365489  0.33159377    -0.10290
C156        C  0.16256122  0.33859093  0.34681218     0.05910
C157        C  0.12555350  0.32655085  0.33084486    -0.04060
C158        C  0.12769668  0.32957517  0.30215305    -0.08500
C159        C  0.16543177  0.34398610  0.28728524     0.05020
C160        C  0.20111757  0.35116919  0.30284066    -0.03530
Br161      Br  0.24940323  0.34907221  0.28915945    -0.03230
H162        H  0.23041631  0.36593268  0.34138059     0.08930
H163        H  0.09920390  0.32168196  0.29129467     0.06950
Br164      Br  0.06941207  0.30394549  0.34506287    -0.03650
C165        C  0.21420064  0.07962786  0.14309705    -0.10290
C166        C  0.20047299  0.10196366  0.15943821     0.05910
C167        C  0.22974720  0.14279624  0.16901535    -0.04060
C168        C  0.27138511  0.16257419  0.16001609    -0.08500
C169        C  0.28541258  0.14241997  0.14114680     0.05020
C170        C  0.25620180  0.09879370  0.13429197    -0.03530
Br171      Br  0.26911060  0.06365594  0.11103189    -0.03230
H172        H  0.19186837  0.04741652  0.13654300     0.08930
H173        H  0.29221057  0.19429614  0.16784415     0.06950
Br174      Br  0.21411487  0.17346799  0.19406754    -0.03650
C175        C  0.37252293  0.29036259  0.13111028    -0.10290
C176        C  0.40283593  0.30484054  0.15193367     0.05910
C177        C  0.40751606  0.27483776  0.16645850    -0.04060
C178        C  0.38209838  0.23173664  0.15979159    -0.08500
C179        C  0.35322875  0.21621816  0.13708192     0.05020
C180        C  0.34645153  0.24733476  0.12475999    -0.03530
Br181      Br  0.29770065  0.23853473  0.10570575    -0.03230
H182        H  0.36645355  0.31279828  0.12116880     0.08930
H183        H  0.38597935  0.21046330  0.17272163     0.06950
Br184      Br  0.44938886  0.29010036  0.19479159    -0.03650
C185        C  0.34158693  0.11469515  0.15838762    -0.10290
C186        C  0.35844931  0.14954304  0.14038605     0.05910
C187        C  0.40226671  0.16751644  0.13353031    -0.04060
C188        C  0.42353048  0.14629655  0.13979944    -0.08500
C189        C  0.40336384  0.10765641  0.15329433     0.05020
C190        C  0.36263228  0.09294345  0.16379854    -0.03530
Br191      Br  0.33409934  0.04373633  0.18623718    -0.03230
H192        H  0.31109069  0.10253790  0.16786492     0.08930
H193        H  0.45561733  0.15911238  0.13260264     0.06950
Br194      Br  0.43450572  0.21765571  0.11197201    -0.03650
C195        C  0.27527595  0.15997020  0.47242829    -0.10290
C196        C  0.28860994  0.14035722  0.49142370     0.05910
C197        C  0.25741561  0.09907615  0.00036712    -0.04060
C198        C  0.21527894  0.08193449  0.49319786    -0.08500
C199        C  0.20290223  0.10331756  0.47609013     0.05020
C200        C  0.23301924  0.14199647  0.46502426    -0.03530
Br201      Br  0.21757410  0.17216894  0.44051068    -0.03230
H202        H  0.29733823  0.18968213  0.46317456     0.08930
H203        H  0.19189366  0.05106954  0.00061862     0.06950
Br204      Br  0.26772868  0.06186848  0.02135934    -0.03650
C205        C  0.37147213  0.28677451  0.00044829    -0.10290
C206        C  0.40501166  0.30199455  0.48187319     0.05910
C207        C  0.41423621  0.27295526  0.46929114    -0.04060
C208        C  0.39012302  0.23007655  0.47539529    -0.08500
C209        C  0.35744246  0.21354305  0.49568236     0.05020
C210        C  0.34637135  0.24362848  0.00617539    -0.03530
Br211      Br  0.29322189  0.23223476  0.02110911    -0.03230
H212        H  0.36213924  0.30840621  0.00871164     0.08930
H213        H  0.39718674  0.20977110  0.46295833     0.06950
Br214      Br  0.46018343  0.28944694  0.44387410    -0.03650
C215        C  0.37072414  0.09171677  0.46702818    -0.10290
C216        C  0.41031168  0.10801457  0.47931992     0.05910
C217        C  0.42844534  0.14746445  0.99337109    -0.04060
C218        C  0.40365169  0.16529465  0.99917979    -0.08500
C219        C  0.36097844  0.14576048  0.49048662     0.05020
C220        C  0.34712617  0.11147445  0.47079264    -0.03530
Br221      Br  0.30134074  0.09201152  0.44477940    -0.03230
H222        H  0.35841228  0.06369406  0.45380304     0.08930
H223        H  0.41680011  0.19316484  0.01261239     0.06950
Br224      Br  0.48366002  0.17536269  0.00980214    -0.03650
C225        C  0.35065445  0.14636764  0.08139733    -0.10290
C226        C  0.32658071  0.16066466  0.09580188     0.05910
C227        C  0.29499888  0.16038045  0.07866918    -0.04060
C228        C  0.29992259  0.16251304  0.04995615    -0.08500
C229        C  0.33154548  0.15908442  0.03571387     0.05020
C230        C  0.35166623  0.14291410  0.05262890    -0.03530
Br231      Br  0.36636393  0.10062248  0.04292497    -0.03230
H232        H  0.36481164  0.13170100  0.09215547     0.08930
H233        H  0.27395868  0.15980236  0.03842906     0.06950
Br234      Br  0.23726388  0.14286924  0.08859029    -0.03650
C235        C  0.33442174  0.16437979  0.50305838    -0.03620
C236        C  0.33051575  0.16731187  0.62854300    -0.03620
C237        C  0.16203655  0.33573367  0.87938607    -0.03620
C238        C  0.16327251  0.34851744  0.75544818    -0.03620
N239        N  0.06179784  0.09629359  0.91460929    -0.07250
N240        N  0.07694254  0.12813199  0.89758747    -0.59370
N241        N  0.09538955  0.06679686  0.96868373    -0.06930
N242        N  0.12902446  0.08404797  0.98479100    -0.61500
N243        N  0.10430491  0.05681513  0.94423170    -0.06530
N244        N  0.14398667  0.06685749  0.94317231    -0.59350
N245        N  0.05387004  0.10745238  0.93891620    -0.06210
N246        N  0.06319258  0.14705053  0.93890353    -0.61850
C247        C  0.07700238  0.15930659  0.91290976     0.94930
C248        C  0.15868330  0.08332775  0.96857894     0.94700
N249        N  0.48121375  0.49001766  0.51128720    -0.07440
N250        N  0.47213699  0.47517510  0.53664957    -0.59950
N251        N  0.47760016  0.06629448  0.97806038    -0.05560
N252        N  0.47300447  0.09943687  0.97819780    -0.61200
N253        N  0.44081416  0.03106222  0.97771996    -0.07470
N254        N  0.41018980  0.03975712  0.97765919    -0.60220
N255        N  0.01769832  0.02574304  0.51114504    -0.05200
N256        N  0.03385019  0.03590219  0.53645448    -0.61290
Mn257      Mn  0.03667111  0.06697176  0.97483728     1.18440
C258        C  0.00542118  0.00376027  0.55212139     0.97010
C259        C  0.43094450  0.08265470  0.97810865     0.97670
N260        N  0.06030939  0.47789446  0.90518463    -0.07490
N261        N  0.09298554  0.47272781  0.90283997    -0.63790
N262        N  0.48165636  0.48037533  0.87342778    -0.06290
N263        N  0.46457115  0.47178982  0.84835515    -0.64470
N264        N  0.01732258  0.01694578  0.87363919    -0.06990
N265        N  0.02505314  0.03387184  0.84890393    -0.64060
N266        N  0.02496109  0.44128498  0.90571256    -0.05890
N267        N  0.03295809  0.41023431  0.90371097    -0.64750
Mn268      Mn  0.06132673  0.03732597  0.90893474     1.10660
C269        C  0.07557688  0.43042943  0.90178499     0.98230
C270        C  0.49176837  0.00575050  0.83335506     0.98310
N271        N  0.39495563  0.44893944  0.93943390    -0.07000
N272        N  0.35539616  0.43964844  0.93974536    -0.62370
N273        N  0.44712464  0.39830665  0.94646874    -0.06320
N274        N  0.43955558  0.35925297  0.94716450    -0.59100
N275        N  0.43735352  0.40911431  0.97035535    -0.07630
N276        N  0.42283935  0.37737515  0.98762585    -0.61940
N277        N  0.40385221  0.43711674  0.91563160    -0.06620
N278        N  0.37023980  0.41919815  0.89942092    -0.59130
Mn279      Mn  0.43771229  0.46928251  0.97525509     1.20190
Mn280      Mn  0.46381522  0.43832695  0.90974658     1.10090
Cl281      Cl  0.49984095  0.00281778  0.94223674    -0.87100
C282        C  0.34045748  0.42163952  0.91458784     0.95240
C283        C  0.42495735  0.34657474  0.97303053     0.95030
N284        N  0.43822886  0.03392953  0.65634895    -0.07250
N285        N  0.40654566  0.04098964  0.65539336    -0.59370
N286        N  0.01663468  0.02896212  0.62395187    -0.06930
N287        N  0.03308743  0.03800162  0.59877653    -0.61500
N288        N  0.48066947  0.49266850  0.62334811    -0.06530
N289        N  0.47218394  0.47643817  0.59789955    -0.59350
N290        N  0.47435719  0.06995756  0.65704238    -0.06210
N291        N  0.46802564  0.10211865  0.65645791    -0.61850
C292        C  0.42557467  0.08370796  0.65563724     0.94930
C293        C  0.00530820  0.00465476  0.58278534     0.94700
N294        N  0.10227667  0.06205816  0.69158833    -0.07440
N295        N  0.14090948  0.06871356  0.69213815    -0.59950
N296        N  0.05103573  0.11371896  0.69808896    -0.05560
N297        N  0.06004161  0.15334018  0.69878200    -0.61200
N298        N  0.05959486  0.10365574  0.72214023    -0.07470
N299        N  0.07524415  0.13654012  0.73946266    -0.60220
N300        N  0.09392475  0.07176946  0.66736304    -0.05200
N301        N  0.12708762  0.08555227  0.65096836    -0.61290
Mn302      Mn  0.03462926  0.07181468  0.66104098     1.18440
C303        C  0.15576634  0.08269686  0.66661983     0.97010
C304        C  0.07485909  0.16712360  0.72470485     0.97670
N305        N  0.43624470  0.41302043  0.66302479    -0.07490
N306        N  0.42204668  0.38019926  0.64570843    -0.63790
N307        N  0.40106847  0.44408841  0.71769926    -0.06290
N308        N  0.36758417  0.42963953  0.73392807    -0.64470
N309        N  0.39271141  0.45392870  0.69349914    -0.06990
N310        N  0.35373029  0.44626054  0.69268739    -0.64060
N311        N  0.44519107  0.40342534  0.68706584    -0.05890
N312        N  0.43753590  0.36433927  0.68650508    -0.64750
Mn313      Mn  0.43633805  0.47285990  0.65850838     1.10660
C314        C  0.42358417  0.35012665  0.66054417     0.98230
C315        C  0.33858560  0.43174387  0.71805591     0.98310
N316        N  0.01428570  0.02318082  0.76204632    -0.07000
N317        N  0.02328252  0.03746149  0.78794461    -0.62370
N318        N  0.02226361  0.44725735  0.72744339    -0.06320
N319        N  0.03031000  0.41612722  0.72797051    -0.59100
N320        N  0.05760345  0.48395467  0.72887411    -0.07630
N321        N  0.09027602  0.47875956  0.73058587    -0.61940
N322        N  0.47857940  0.48659078  0.76106166    -0.06620
N323        N  0.46286795  0.47551244  0.78626785    -0.59130
Mn324      Mn  0.05879793  0.04381192  0.72669635     1.20190
Mn325      Mn  0.46111007  0.44464390  0.72384585     1.10090
Cl326      Cl  0.49764632  0.00834224  0.69256308    -0.87100
C327        C  0.49074893  0.00778270  0.80282814     0.95240
C328        C  0.07294199  0.43644190  0.72963054     0.95030
C329        C  0.07375662  0.23360023  0.73171060    -0.10290
C330        C  0.09562079  0.21202824  0.73346434     0.05910
C331        C  0.13753932  0.23414889  0.74254947    -0.03760
C332        C  0.15754191  0.27746217  0.74796012    -0.08500
C333        C  0.13689074  0.30081360  0.74584624     0.05020
C334        C  0.09260003  0.27658214  0.73933519    -0.03530
Br335      Br  0.05170017  0.29394454  0.74416551    -0.03230
H336        H  0.04076652  0.21606500  0.72580282     0.08930
H337        H  0.19024583  0.29316480  0.75370651     0.06950
Br338      Br  0.17000378  0.20748353  0.74726529    -0.03650
C339        C  0.11759839  0.42402978  0.76045843    -0.10290
C340        C  0.09738553  0.41592297  0.73497706     0.05910
C341        C  0.10362556  0.39145893  0.71496982    -0.04060
C342        C  0.12749938  0.37296132  0.72157719    -0.08500
C343        C  0.14294297  0.37557248  0.74872762     0.05020
C344        C  0.14100842  0.40549933  0.76744294    -0.03530
Br345      Br  0.17159150  0.42846081  0.80171092    -0.03230
H346        H  0.11531863  0.44550543  0.77516476     0.08930
H347        H  0.13080562  0.35342890  0.70595261     0.06950
Br348      Br  0.07952310  0.38191397  0.67866367    -0.03650
C349        C  0.26282842  0.38080970  0.70927034    -0.10290
C350        C  0.29391520  0.41397805  0.72543804     0.05910
C351        C  0.28157204  0.43063484  0.74739092    -0.04060
C352        C  0.23890985  0.41154200  0.75438503    -0.08500
C353        C  0.20782218  0.37311166  0.74163056     0.05020
C354        C  0.22010134  0.36079343  0.71660037    -0.03530
Br355      Br  0.18214493  0.32109451  0.68915680    -0.03230
H356        H  0.27195372  0.37006934  0.69085599     0.08930
H357        H  0.23116791  0.42449343  0.77198700     0.06950
Br358      Br  0.32202054  0.47794797  0.76939586    -0.03650
C359        C  0.11779131  0.25526696  0.86903356    -0.10290
C360        C  0.13892384  0.28906624  0.88861730     0.05910
C361        C  0.14039085  0.27791230  0.91655226    -0.04060
C362        C  0.11958534  0.23551535  0.92383843    -0.08500
C363        C  0.09719099  0.20317174  0.90422207     0.05020
C364        C  0.09630596  0.21328888  0.87663557    -0.03530
Br365      Br  0.06477469  0.17153956  0.84824980    -0.03230
H366        H  0.11782204  0.26013434  0.84722680     0.08930
H367        H  0.12079135  0.22779731  0.94517806     0.06950
Br368      Br  0.16574745  0.31759776  0.94704523    -0.03650
C369        C  0.15700143  0.40180658  0.87997141    -0.10290
C370        C  0.13959120  0.36011936  0.88976904     0.05910
C371        C  0.10084665  0.34366678  0.90518236    -0.04060
C372        C  0.08244040  0.36839014  0.90953273    -0.08500
C373        C  0.09975629  0.40868583  0.89885309     0.05020
C374        C  0.13814485  0.42594589  0.88451070    -0.03530
Br375      Br  0.16548606  0.48103635  0.86865186    -0.03230
H376        H  0.18570340  0.41563569  0.86785759     0.08930
H377        H  0.05281209  0.35514638  0.92060721     0.06950
Br378      Br  0.06352563  0.28695313  0.91753027    -0.03650
C379        C  0.27737440  0.36110627  0.89295687    -0.10290
C380        C  0.29543852  0.40016307  0.90688826     0.05910
C381        C  0.26963518  0.41641710  0.91458507    -0.04060
C382        C  0.22707986  0.39465633  0.90708327    -0.08500
C383        C  0.20861097  0.35670716  0.89083183     0.05020
C384        C  0.23472227  0.33882340  0.88557757    -0.03530
Br385      Br  0.21719876  0.28626304  0.86589971    -0.03230
H386        H  0.29667771  0.34751492  0.88785111     0.08930
H387        H  0.20892296  0.40813410  0.91472831     0.06950
Br388      Br  0.29096301  0.46949186  0.93418203    -0.03650
C389        C  0.20033931  0.35365485  0.83159375    -0.10290
C390        C  0.16256120  0.33859090  0.84681217     0.05910
C391        C  0.12555348  0.32655083  0.83084485    -0.04060
C392        C  0.12769665  0.32957515  0.80215304    -0.08500
C393        C  0.16543175  0.34398609  0.78728523     0.05020
C394        C  0.20111754  0.35116916  0.80284064    -0.03530
Br395      Br  0.24940319  0.34907217  0.78915942    -0.03230
H396        H  0.23041629  0.36593262  0.84138057     0.08930
H397        H  0.09920387  0.32168196  0.79129467     0.06950
Br398      Br  0.06941205  0.30394546  0.84506287    -0.03650
C399        C  0.21420058  0.07962786  0.64309697    -0.10290
C400        C  0.20047297  0.10196360  0.65943824     0.05910
C401        C  0.22974725  0.14279607  0.66901552    -0.04060
C402        C  0.27138515  0.16257404  0.66001624    -0.08500
C403        C  0.28541255  0.14241992  0.64114682     0.05020
C404        C  0.25620175  0.09879369  0.63429191    -0.03530
Br405      Br  0.26911053  0.06365597  0.61103177    -0.03230
H406        H  0.19186827  0.04741657  0.63654285     0.08930
H407        H  0.29221067  0.19429590  0.66784441     0.06950
Br408      Br  0.21411503  0.17346766  0.69406793    -0.03650
C409        C  0.37252268  0.29036250  0.63111039    -0.10290
C410        C  0.40283591  0.30484054  0.65193365     0.05910
C411        C  0.40751622  0.27483783  0.66645841    -0.04060
C412        C  0.38209855  0.23173668  0.65979154    -0.08500
C413        C  0.35322871  0.21621814  0.63708199     0.05020
C414        C  0.34645125  0.24733465  0.62476019    -0.03530
Br415      Br  0.29769990  0.23853441  0.60570648    -0.03230
H416        H  0.36645311  0.31279813  0.62116901     0.08930
H417        H  0.38597968  0.21046340  0.67272153     0.06950
Br418      Br  0.44938925  0.29010054  0.69479136    -0.03650
C419        C  0.34158688  0.11469508  0.65838761    -0.10290
C420        C  0.35844928  0.14954300  0.64038606     0.05910
C421        C  0.40226667  0.16751638  0.63353030    -0.04060
C422        C  0.42353044  0.14629650  0.63979943    -0.08500
C423        C  0.40336380  0.10765636  0.65329433     0.05020
C424        C  0.36263223  0.09294338  0.66379852    -0.03530
Br425      Br  0.33409928  0.04373623  0.68623713    -0.03230
H426        H  0.31109063  0.10253780  0.66786489     0.08930
H427        H  0.45561729  0.15911233  0.63260263     0.06950
Br428      Br  0.43450567  0.21765563  0.61197198    -0.03650
C429        C  0.27527589  0.15997018  0.97242832    -0.10290
C430        C  0.28860990  0.14035714  0.99142366     0.05910
C431        C  0.25741563  0.09907628  0.50036722    -0.04060
C432        C  0.21527892  0.08193437  0.99319776    -0.08500
C433        C  0.20290220  0.10331749  0.97609010     0.05020
C434        C  0.23301918  0.14199646  0.96502429    -0.03530
Br435      Br  0.21757401  0.17216900  0.94051080    -0.03230
H436        H  0.29733816  0.18968216  0.96317463     0.08930
H437        H  0.19189366  0.05106971  0.50061876     0.06950
Br438      Br  0.26772866  0.06186864  0.52135951    -0.03650
C439        C  0.37147216  0.28677459  0.50044826    -0.10290
C440        C  0.40501160  0.30199447  0.98187319     0.05910
C441        C  0.41423614  0.27295518  0.96929113    -0.04060
C442        C  0.39012296  0.23007647  0.97539528    -0.08500
C443        C  0.35744242  0.21354297  0.99568237     0.05020
C444        C  0.34637136  0.24362856  0.50617534    -0.03530
Br445      Br  0.29322183  0.23223485  0.52110893    -0.03230
H446        H  0.36213926  0.30840629  0.50871159     0.08930
H447        H  0.39718666  0.20977103  0.96295832     0.06950
Br448      Br  0.46018333  0.28944685  0.94387407    -0.03650
C449        C  0.37072414  0.09171674  0.96702813    -0.10290
C450        C  0.41031166  0.10801452  0.97931991     0.05910
C451        C  0.42844538  0.14746451  0.49337109    -0.04060
C452        C  0.40365173  0.16529473  0.49917979    -0.08500
C453        C  0.36097841  0.14576041  0.99048660     0.05020
C454        C  0.34712617  0.11147443  0.97079259    -0.03530
Br455      Br  0.30134081  0.09201160  0.94477930    -0.03230
H456        H  0.35841230  0.06369406  0.95380298     0.08930
H457        H  0.41680017  0.19316492  0.51261238     0.06950
Br458      Br  0.48366008  0.17536278  0.50980211    -0.03650
C459        C  0.35065439  0.14636762  0.58139735    -0.10290
C460        C  0.32658073  0.16066473  0.59580191     0.05910
C461        C  0.29499903  0.16038074  0.57866920    -0.04060
C462        C  0.29992280  0.16251339  0.54995618    -0.08500
C463        C  0.33154559  0.15908458  0.53571389     0.05020
C464        C  0.35166624  0.14291416  0.55262893    -0.03530
Br465      Br  0.36636397  0.10062257  0.54292497    -0.03230
H466        H  0.36481147  0.13170087  0.59215549     0.08930
H467        H  0.27395891  0.15980271  0.53842907     0.06950
Br468      Br  0.23726392  0.14286921  0.58859020    -0.03650
C469        C  0.33438704  0.66437382  0.00305607    -0.03620
C470        C  0.33048633  0.66730457  0.12854190    -0.03620
C471        C  0.16207768  0.83573728  0.37938624    -0.03620
C472        C  0.16330031  0.84851847  0.25544846    -0.03620
N473        N  0.06175854  0.59628831  0.41460659    -0.07250
N474        N  0.07691373  0.62812839  0.39758611    -0.59370
N475        N  0.09535633  0.56679168  0.46867608    -0.06930
N476        N  0.12899440  0.58404622  0.48478042    -0.61500
N477        N  0.10426828  0.55681004  0.44422281    -0.06530
N478        N  0.14395152  0.56685731  0.44315952    -0.59350
N479        N  0.05383641  0.60745019  0.43891428    -0.06210
N480        N  0.06317476  0.64705363  0.43890328    -0.61850
C481        C  0.07698686  0.65930836  0.41290947     0.94930
C482        C  0.15865232  0.58333021  0.46856514     0.94700
N483        N  0.48123978  0.99002273  0.01128760    -0.07440
N484        N  0.47215941  0.97517977  0.03664974    -0.59950
N485        N  0.47756802  0.56628938  0.47806360    -0.05560
N486        N  0.47297114  0.59943105  0.47820123    -0.61200
N487        N  0.44078233  0.53105656  0.47772577    -0.07470
N488        N  0.41015718  0.53975011  0.47766676    -0.60220
N489        N  0.01767168  0.52573852  0.01114323    -0.05200
N490        N  0.03382661  0.53589825  0.03645199    -0.61290
Mn491      Mn  0.03663923  0.56696750  0.47483521     1.18440
C492        C  0.00540017  0.50375615  0.05212001     0.97010
C493        C  0.43091089  0.58264738  0.47811486     0.97670
N494        N  0.06035700  0.97790143  0.40519441    -0.07490
N495        N  0.09303460  0.97273671  0.40285176    -0.63790
N496        N  0.48170723  0.98037560  0.37342923    -0.06290
N497        N  0.46462388  0.97178762  0.34835604    -0.64470
N498        N  0.01727303  0.51694436  0.37363752    -0.06990
N499        N  0.02500226  0.53387236  0.34890305    -0.64060
N500        N  0.02500962  0.94129101  0.40572264    -0.05890
N501        N  0.03300874  0.91024172  0.40372302    -0.64750
Mn502      Mn  0.06128275  0.53732035  0.40892935     1.10660
C503        C  0.07562774  0.93043854  0.40179832     0.98230
C504        C  0.49171584  0.50575352  0.33335463     0.98310
N505        N  0.39499672  0.94894355  0.43942740    -0.07000
N506        N  0.35543732  0.93965170  0.43973568    -0.62370
N507        N  0.44716152  0.89830977  0.44647318    -0.06320
N508        N  0.43958085  0.85925198  0.44716927    -0.59100
N509        N  0.43738441  0.90911835  0.47035728    -0.07630
N510        N  0.42285470  0.87737595  0.48762614    -0.61940
N511        N  0.40389643  0.93711793  0.41562734    -0.06620
N512        N  0.37028580  0.91919635  0.39941492    -0.59130
Mn513      Mn  0.43774501  0.96928776  0.47525229     1.20190
Mn514      Mn  0.46386115  0.93832963  0.40974966     1.10090
Cl515      Cl  0.49980240  0.50281358  0.44223487    -0.87100
C516        C  0.34050175  0.92163942  0.41457865     0.95240
C517        C  0.42496940  0.84657227  0.47303286     0.95030
N518        N  0.43820663  0.53392480  0.15634136    -0.07250
N519        N  0.40652276  0.54098335  0.15538323    -0.59370
N520        N  0.01661621  0.52895727  0.12395142    -0.06930
N521        N  0.03306863  0.53799740  0.09877584    -0.61500
N522        N  0.48068770  0.99267369  0.12334886    -0.06530
N523        N  0.47220191  0.97644280  0.09790044    -0.59350
N524        N  0.47433448  0.56995346  0.15703625    -0.06210
N525        N  0.46800157  0.60211367  0.15645016    -0.61850
C526        C  0.42555040  0.58370131  0.15562700     0.94930
C527        C  0.00528968  0.50465047  0.08278433     0.94700
N528        N  0.10224939  0.56205497  0.19159660    -0.07440
N529        N  0.14088268  0.56871159  0.19215043    -0.59950
N530        N  0.05100986  0.61371756  0.19808812    -0.05560
N531        N  0.06002389  0.65334157  0.19877937    -0.61200
N532        N  0.05956293  0.60365289  0.22214094    -0.07470
N533        N  0.07521508  0.63653806  0.23946254    -0.60220
N534        N  0.09390128  0.57176453  0.16736933    -0.05200
N535        N  0.12706687  0.58554607  0.15097718    -0.61290
Mn536      Mn  0.03460682  0.57181104  0.16104065     1.18440
C537        C  0.15574390  0.58269358  0.16663252     0.97010
C538        C  0.07483914  0.66712440  0.22470287     0.97670
N539        N  0.43626496  0.91302162  0.16302334    -0.07490
N540        N  0.42205219  0.88019731  0.14570831    -0.63790
N541        N  0.40110175  0.94408789  0.21770389    -0.06290
N542        N  0.36761804  0.92963346  0.23393374    -0.64470
N543        N  0.39274157  0.95393104  0.19350574    -0.06990
N544        N  0.35375951  0.94625987  0.19269639    -0.64060
N545        N  0.44521724  0.90342555  0.18706214    -0.05890
N546        N  0.43755157  0.86433567  0.18650077    -0.64750
Mn547      Mn  0.43636096  0.97286371  0.15851178     1.10660
C548        C  0.42358712  0.85012159  0.16054198     0.98230
C549        C  0.33861710  0.93173793  0.21806419     0.98310
N550        N  0.01424402  0.52318122  0.26204756    -0.07000
N551        N  0.02323598  0.53746336  0.28794571    -0.62370
N552        N  0.02230125  0.94726013  0.22743456    -0.06320
N553        N  0.03034970  0.91613141  0.22796133    -0.59100
N554        N  0.05764028  0.98395834  0.22886447    -0.07630
N555        N  0.09031419  0.97876529  0.23057487    -0.61940
N556        N  0.47862179  0.98658963  0.26106162    -0.06620
N557        N  0.46291554  0.97550957  0.28626884    -0.59130
Mn558      Mn  0.05876336  0.54380934  0.22670125     1.20190
Mn559      Mn  0.46114542  0.94464424  0.22384383     1.10090
Cl560      Cl  0.49761772  0.50833995  0.19256374    -0.87100
C561        C  0.49069889  0.50778619  0.30282779     0.95240
C562        C  0.07298199  0.93644802  0.22961966     0.95030
C563        C  0.07376167  0.73361468  0.23170656    -0.10290
C564        C  0.09561337  0.71203041  0.23346090     0.05910
C565        C  0.13753071  0.73413881  0.24254907    -0.03760
C566        C  0.15754557  0.77745245  0.24796073    -0.08500
C567        C  0.13690761  0.80081597  0.24584581     0.05020
C568        C  0.09261663  0.77659671  0.23933350    -0.03530
Br569      Br  0.05172948  0.79397515  0.24416793    -0.03230
H570        H  0.04077178  0.71608877  0.22579793     0.08930
H571        H  0.19024811  0.79314537  0.25370931     0.06950
Br572      Br  0.16997671  0.70745556  0.24727024    -0.03650
C573        C  0.11763205  0.92403518  0.26045299    -0.10290
C574        C  0.09742687  0.91593177  0.23496882     0.05910
C575        C  0.10367502  0.89147313  0.21496185    -0.04060
C576        C  0.12754607  0.87297425  0.22157265    -0.08500
C577        C  0.14297962  0.87558011  0.24872557     0.05020
C578        C  0.14104051  0.90550432  0.26744055    -0.03530
Br579      Br  0.17161814  0.92846343  0.30171059    -0.03230
H580        H  0.11534749  0.94550830  0.27515903     0.08930
H581        H  0.13085723  0.85344426  0.20594860     0.06950
Br582      Br  0.07958513  0.88193464  0.17865212    -0.03650
C583        C  0.26286175  0.88079752  0.20927923    -0.10290
C584        C  0.29394676  0.91396784  0.22544679     0.05910
C585        C  0.28160167  0.93062774  0.24739654    -0.04060
C586        C  0.23893871  0.91153748  0.25438726    -0.08500
C587        C  0.20785138  0.87310680  0.24163263     0.05020
C588        C  0.22013352  0.86078354  0.21660599    -0.03530
Br589      Br  0.18218056  0.82108419  0.18916135    -0.03230
H590        H  0.27198925  0.87005535  0.19086674     0.08930
H591        H  0.23119462  0.92449180  0.27198687     0.06950
Br592      Br  0.32204827  0.97794203  0.26940158    -0.03650
C593        C  0.11782026  0.75527237  0.36903327    -0.10290
C594        C  0.13896253  0.78906966  0.38861688     0.05910
C595        C  0.14043011  0.77791258  0.41655102    -0.04060
C596        C  0.11960778  0.73551507  0.42383769    -0.08500
C597        C  0.09719581  0.70317495  0.40422254     0.05020
C598        C  0.09631649  0.71329495  0.37663594    -0.03530
Br599      Br  0.06476620  0.67155186  0.34825108    -0.03230
H600        H  0.11785304  0.76014065  0.34722652     0.08930
H601        H  0.12081230  0.72779403  0.44517680     0.06950
Br602      Br  0.16580631  0.81759549  0.44704303    -0.03650
C603        C  0.15704620  0.90181248  0.37997561    -0.10290
C604        C  0.13963610  0.86012502  0.38977285     0.05910
C605        C  0.10089518  0.84367473  0.40519021    -0.04060
C606        C  0.08249247  0.86840035  0.40954481    -0.08500
C607        C  0.09980798  0.90869606  0.39886549     0.05020
C608        C  0.13819379  0.92595460  0.38451995    -0.03530
Br609      Br  0.16553700  0.98104697  0.36866394    -0.03230
H610        H  0.18574534  0.91564009  0.36785890     0.08930
H611        H  0.05286600  0.85515776  0.42062164     0.06950
Br612      Br  0.06357159  0.78696160  0.41753776    -0.03650
C613        C  0.27741630  0.86110518  0.39294904    -0.10290
C614        C  0.29548385  0.90016449  0.40687765     0.05910
C615        C  0.26968339  0.91642163  0.41457461    -0.04060
C616        C  0.22712656  0.89465975  0.40707805    -0.08500
C617        C  0.20865348  0.85670854  0.39082887     0.05020
C618        C  0.23476245  0.83882242  0.38557317    -0.03530
Br619      Br  0.21723181  0.78625816  0.36589843    -0.03230
H620        H  0.29671771  0.84751173  0.38784333     0.08930
H621        H  0.20897236  0.90813926  0.41472518     0.06950
Br622      Br  0.29101714  0.96950315  0.43416413    -0.03650
C623        C  0.20037264  0.85365194  0.33159143    -0.10290
C624        C  0.16259787  0.83859508  0.34681238     0.05910
C625        C  0.12558895  0.82656000  0.33084741    -0.04060
C626        C  0.12772826  0.82958236  0.30215533    -0.08500
C627        C  0.16546040  0.84398704  0.28728537     0.05020
C628        C  0.20114582  0.85116342  0.30283848    -0.03530
Br629      Br  0.24942237  0.84905161  0.28915412    -0.03230
H630        H  0.23045077  0.86592520  0.34137608     0.08930
H631        H  0.09923478  0.82169263  0.29129831     0.06950
Br632      Br  0.06945085  0.80396374  0.34506925    -0.03650
C633        C  0.21416785  0.57962516  0.14309301    -0.10290
C634        C  0.20045079  0.60195400  0.15945120     0.05910
C635        C  0.22973549  0.64277499  0.16904205    -0.04060
C636        C  0.27136911  0.66255541  0.16003363    -0.08500
C637        C  0.28538462  0.64241060  0.14114773     0.05020
C638        C  0.25616789  0.59878860  0.13428571    -0.03530
Br639      Br  0.26906768  0.56365269  0.11101694    -0.03230
H640        H  0.19182929  0.54742017  0.13653018     0.08930
H641        H  0.29220284  0.69426990  0.16787096     0.06950
Br642      Br  0.21412639  0.67342623  0.19412886    -0.03650
C643        C  0.37249882  0.79035651  0.13111843    -0.10290
C644        C  0.40282503  0.80483322  0.15193350     0.05910
C645        C  0.40750714  0.77482809  0.16645386    -0.04060
C646        C  0.38208212  0.73172705  0.15978894    -0.08500
C647        C  0.35320198  0.71621016  0.13708496     0.05020
C648        C  0.34641989  0.74732830  0.12477094    -0.03530
Br649      Br  0.29765377  0.73852815  0.10573758    -0.03230
H650        H  0.36642582  0.81279356  0.12118254     0.08930
H651        H  0.38596643  0.71045259  0.17271562     0.06950
Br652      Br  0.44939246  0.79008692  0.19477750    -0.03650
C653        C  0.34155739  0.61468077  0.15837823    -0.10290
C654        C  0.35841953  0.64953225  0.14037976     0.05910
C655        C  0.40223583  0.66750507  0.13352049    -0.04060
C656        C  0.42350131  0.64628651  0.13978822    -0.08500
C657        C  0.40333722  0.60764714  0.15328384     0.05020
C658        C  0.36260510  0.59293124  0.16378808    -0.03530
Br659      Br  0.33407455  0.54372319  0.18622617    -0.03230
H660        H  0.31106010  0.60251980  0.16785471     0.08930
H661        H  0.45558758  0.65910289  0.13259005     0.06950
Br662      Br  0.43447070  0.71764245  0.11195965    -0.03650
C663        C  0.27524843  0.65996437  0.47241800    -0.10290
C664        C  0.28857534  0.64035395  0.49142068     0.05910
C665        C  0.25737540  0.59907693  0.00036707    -0.04060
C666        C  0.21524097  0.58193735  0.49319276    -0.08500
C667        C  0.20287136  0.60331660  0.47607619     0.05020
C668        C  0.23299371  0.64199112  0.46500772    -0.03530
Br669      Br  0.21755839  0.67215887  0.44048290    -0.03230
H670        H  0.29731524  0.68967317  0.46316253     0.08930
H671        H  0.19185150  0.55107615  0.00061655     0.06950
Br672      Br  0.26767532  0.56186774  0.02136741    -0.03650
C673        C  0.37145809  0.78677335  0.00044078    -0.10290
C674        C  0.40500666  0.80198916  0.48187269     0.05910
C675        C  0.41422591  0.77294454  0.46929333    -0.04060
C676        C  0.39009963  0.73006551  0.47539348    -0.08500
C677        C  0.35741388  0.71353669  0.49567715     0.05020
C678        C  0.34634720  0.74362722  0.00616584    -0.03530
Br679      Br  0.29319453  0.73224028  0.02108962    -0.03230
H680        H  0.36212837  0.80840930  0.00870061     0.08930
H681        H  0.39715994  0.70975659  0.46295760     0.06950
Br682      Br  0.46018486  0.78942912  0.44388701    -0.03650
C683        C  0.37069058  0.59170749  0.46703170    -0.10290
C684        C  0.41027673  0.60800533  0.47932566     0.05910
C685        C  0.42840761  0.64745275  0.99337916    -0.04060
C686        C  0.40361372  0.66528300  0.99918510    -0.08500
C687        C  0.36094198  0.64575049  0.49048812     0.05020
C688        C  0.34709085  0.61146348  0.47079516    -0.03530
Br689      Br  0.30130246  0.59199372  0.44478378    -0.03230
H690        H  0.35838063  0.56368515  0.45380634     0.08930
H691        H  0.41676039  0.69315228  0.01261849     0.06950
Br692      Br  0.48361681  0.67534543  0.00981815    -0.03650
C693        C  0.35061255  0.64635419  0.08139438    -0.10290
C694        C  0.32654952  0.66066271  0.09580027     0.05910
C695        C  0.29497466  0.66039354  0.07866844    -0.04060
C696        C  0.29989804  0.66252648  0.04995493    -0.08500
C697        C  0.33151096  0.65908170  0.03571179     0.05020
C698        C  0.35162201  0.64290011  0.05262624    -0.03530
Br699      Br  0.36630551  0.60059755  0.04292175    -0.03230
H700        H  0.36476198  0.63167889  0.09215165     0.08930
H701        H  0.27393628  0.65982031  0.03842787     0.06950
Br702      Br  0.23723839  0.64287680  0.08858900    -0.03650
C703        C  0.33438706  0.66437388  0.50305609    -0.03620
C704        C  0.33048630  0.66730457  0.62854192    -0.03620
C705        C  0.16207765  0.83573724  0.87938623    -0.03620
C706        C  0.16330030  0.84851847  0.75544845    -0.03620
N707        N  0.06175852  0.59628827  0.91460658    -0.07250
N708        N  0.07691372  0.62812835  0.89758611    -0.59370
N709        N  0.09535632  0.56679164  0.96867608    -0.06930
N710        N  0.12899438  0.58404618  0.98478041    -0.61500
N711        N  0.10426826  0.55681000  0.94422281    -0.06530
N712        N  0.14395150  0.56685726  0.94315952    -0.59350
N713        N  0.05383639  0.60745015  0.93891427    -0.06210
N714        N  0.06317474  0.64705360  0.93890328    -0.61850
C715        C  0.07698685  0.65930832  0.91290947     0.94930
C716        C  0.15865230  0.58333015  0.96856514     0.94700
N717        N  0.48123981  0.99002277  0.51128760    -0.07440
N718        N  0.47215943  0.97517980  0.53664974    -0.59950
N719        N  0.47756800  0.56628934  0.97806359    -0.05560
N720        N  0.47297112  0.59943100  0.97820122    -0.61200
N721        N  0.44078231  0.53105651  0.97772577    -0.07470
N722        N  0.41015716  0.53975006  0.97766675    -0.60220
N723        N  0.01767170  0.52573855  0.51114324    -0.05200
N724        N  0.03382661  0.53589828  0.53645200    -0.61290
Mn725      Mn  0.03663922  0.56696746  0.97483521     1.18440
C726        C  0.00540017  0.50375617  0.55212001     0.97010
C727        C  0.43091087  0.58264733  0.97811485     0.97670
N728        N  0.06035696  0.97790139  0.90519440    -0.07490
N729        N  0.09303455  0.97273666  0.90285175    -0.63790
N730        N  0.48170719  0.98037555  0.87342923    -0.06290
N731        N  0.46462383  0.97178757  0.84835604    -0.64470
N732        N  0.01727301  0.51694431  0.87363752    -0.06990
N733        N  0.02500223  0.53387231  0.84890305    -0.64060
N734        N  0.02500958  0.94129097  0.90572264    -0.05890
N735        N  0.03300870  0.91024168  0.90372301    -0.64750
Mn736      Mn  0.06128273  0.53732030  0.90892935     1.10660
C737        C  0.07562770  0.93043850  0.90179831     0.98230
C738        C  0.49171581  0.50575346  0.83335463     0.98310
N739        N  0.39499669  0.94894350  0.93942740    -0.07000
N740        N  0.35543729  0.93965166  0.93973568    -0.62370
N741        N  0.44716148  0.89830972  0.94647318    -0.06320
N742        N  0.43958081  0.85925193  0.94716927    -0.59100
N743        N  0.43738437  0.90911830  0.97035728    -0.07630
N744        N  0.42285466  0.87737590  0.98762614    -0.61940
N745        N  0.40389639  0.93711788  0.91562734    -0.06620
N746        N  0.37028577  0.91919632  0.89941492    -0.59130
Mn747      Mn  0.43774498  0.96928772  0.97525229     1.20190
Mn748      Mn  0.46386111  0.93832958  0.90974966     1.10090
Cl749      Cl  0.49980238  0.50281353  0.94223487    -0.87100
C750        C  0.34050172  0.92163938  0.91457865     0.95240
C751        C  0.42496935  0.84657222  0.97303286     0.95030
N752        N  0.43820659  0.53392479  0.65634136    -0.07250
N753        N  0.40652273  0.54098334  0.65538323    -0.59370
N754        N  0.01661619  0.52895728  0.62395142    -0.06930
N755        N  0.03306861  0.53799742  0.59877585    -0.61500
N756        N  0.48068771  0.99267368  0.62334886    -0.06530
N757        N  0.47220192  0.97644281  0.59790043    -0.59350
N758        N  0.47433444  0.56995345  0.65703626    -0.06210
N759        N  0.46800153  0.60211366  0.65645017    -0.61850
C760        C  0.42555035  0.58370129  0.65562700     0.94930
C761        C  0.00528967  0.50465049  0.58278433     0.94700
N762        N  0.10224935  0.56205497  0.69159661    -0.07440
N763        N  0.14088265  0.56871159  0.69215044    -0.59950
N764        N  0.05100982  0.61371755  0.69808812    -0.05560
N765        N  0.06002386  0.65334157  0.69877938    -0.61200
N766        N  0.05956289  0.60365288  0.72214094    -0.07470
N767        N  0.07521505  0.63653805  0.73946255    -0.60220
N768        N  0.09390125  0.57176453  0.66736933    -0.05200
N769        N  0.12706684  0.58554608  0.65097719    -0.61290
Mn770      Mn  0.03460679  0.57181104  0.66104065     1.18440
C771        C  0.15574387  0.58269359  0.66663252     0.97010
C772        C  0.07483912  0.66712440  0.72470288     0.97670
N773        N  0.43626496  0.91302162  0.66302333    -0.07490
N774        N  0.42205219  0.88019732  0.64570829    -0.63790
N775        N  0.40110173  0.94408787  0.71770388    -0.06290
N776        N  0.36761802  0.92963345  0.73393373    -0.64470
N777        N  0.39274156  0.95393103  0.69350573    -0.06990
N778        N  0.35375950  0.94625986  0.69269638    -0.64060
N779        N  0.44521724  0.90342555  0.68706213    -0.05890
N780        N  0.43755157  0.86433567  0.68650075    -0.64750
Mn781      Mn  0.43636095  0.97286370  0.65851177     1.10660
C782        C  0.42358712  0.85012159  0.66054196     0.98230
C783        C  0.33861709  0.93173792  0.71806418     0.98310
N784        N  0.01424398  0.52318119  0.76204756    -0.07000
N785        N  0.02323594  0.53746333  0.78794571    -0.62370
N786        N  0.02230123  0.94726012  0.72743455    -0.06320
N787        N  0.03034969  0.91613140  0.72796132    -0.59100
N788        N  0.05764026  0.98395833  0.72886448    -0.07630
N789        N  0.09031417  0.97876529  0.73057487    -0.61940
N790        N  0.47862176  0.98658961  0.76106161    -0.06620
N791        N  0.46291550  0.97550953  0.78626883    -0.59130
Mn792      Mn  0.05876332  0.54380932  0.72670124     1.20190
Mn793      Mn  0.46114540  0.94464422  0.72384382     1.10090
Cl794      Cl  0.49761769  0.50833994  0.69256373    -0.87100
C795        C  0.49069885  0.50778614  0.80282779     0.95240
C796        C  0.07298197  0.93644802  0.72961965     0.95030
C797        C  0.07376167  0.73361469  0.73170654    -0.10290
C798        C  0.09561335  0.71203040  0.73346090     0.05910
C799        C  0.13753067  0.73413879  0.74254911    -0.03760
C800        C  0.15754554  0.77745244  0.74796077    -0.08500
C801        C  0.13690759  0.80081597  0.74584581     0.05020
C802        C  0.09261663  0.77659672  0.73933347    -0.03530
Br803      Br  0.05172949  0.79397517  0.74416787    -0.03230
H804        H  0.04077179  0.71608879  0.72579788     0.08930
H805        H  0.19024806  0.79314534  0.75370938     0.06950
Br806      Br  0.16997665  0.70745553  0.74727032    -0.03650
C807        C  0.11763199  0.92403514  0.76045300    -0.10290
C808        C  0.09742686  0.91593177  0.73496882     0.05910
C809        C  0.10367507  0.89147318  0.71496183    -0.04060
C810        C  0.12754612  0.87297430  0.72157264    -0.08500
C811        C  0.14297961  0.87558012  0.74872557     0.05020
C812        C  0.14104046  0.90550429  0.76744056    -0.03530
Br813      Br  0.17161808  0.92846339  0.80171061    -0.03230
H814        H  0.11534739  0.94550822  0.77515905     0.08930
H815        H  0.13085732  0.85344435  0.70594857     0.06950
Br816      Br  0.07958527  0.88193478  0.67865207    -0.03650
C817        C  0.26286174  0.88079746  0.70927924    -0.10290
C818        C  0.29394674  0.91396783  0.72544678     0.05910
C819        C  0.28160164  0.93062777  0.74739649    -0.04060
C820        C  0.23893868  0.91153750  0.75438721    -0.08500
C821        C  0.20785136  0.87310679  0.74163262     0.05020
C822        C  0.22013351  0.86078348  0.71660600    -0.03530
Br823      Br  0.18218055  0.82108409  0.68916137    -0.03230
H824        H  0.27198925  0.87005525  0.69086677     0.08930
H825        H  0.23119458  0.92449186  0.77198680     0.06950
Br826      Br  0.32204822  0.97794215  0.76940147    -0.03650
C827        C  0.11782025  0.75527233  0.86903326    -0.10290
C828        C  0.13896251  0.78906962  0.88861687     0.05910
C829        C  0.14043008  0.77791254  0.91655102    -0.04060
C830        C  0.11960776  0.73551504  0.92383768    -0.08500
C831        C  0.09719580  0.70317491  0.90422253     0.05020
C832        C  0.09631649  0.71329491  0.87663593    -0.03530
Br833      Br  0.06476622  0.67155182  0.84825107    -0.03230
H834        H  0.11785305  0.76014062  0.84722650     0.08930
H835        H  0.12081227  0.72779399  0.94517680     0.06950
Br836      Br  0.16580626  0.81759545  0.94704303    -0.03650
C837        C  0.15704617  0.90181245  0.87997561    -0.10290
C838        C  0.13963607  0.86012499  0.88977284     0.05910
C839        C  0.10089514  0.84367468  0.90519019    -0.04060
C840        C  0.08249242  0.86840030  0.90954479    -0.08500
C841        C  0.09980794  0.90869602  0.89886548     0.05020
C842        C  0.13819376  0.92595456  0.88451994    -0.03530
Br843      Br  0.16553698  0.98104694  0.86866395    -0.03230
H844        H  0.18574532  0.91564006  0.86785891     0.08930
H845        H  0.05286595  0.85515771  0.92062162     0.06950
Br846      Br  0.06357155  0.78696155  0.91753774    -0.03650
C847        C  0.27741627  0.86110516  0.89294903    -0.10290
C848        C  0.29548382  0.90016446  0.90687765     0.05910
C849        C  0.26968335  0.91642159  0.91457461    -0.04060
C850        C  0.22712652  0.89465970  0.90707805    -0.08500
C851        C  0.20865345  0.85670850  0.89082887     0.05020
C852        C  0.23476243  0.83882240  0.88557316    -0.03530
Br853      Br  0.21723180  0.78625816  0.86589839    -0.03230
H854        H  0.29671768  0.84751171  0.88784331     0.08930
H855        H  0.20897231  0.90813921  0.91472519     0.06950
Br856      Br  0.29101709  0.96950310  0.93416415    -0.03650
C857        C  0.20037264  0.85365197  0.83159143    -0.10290
C858        C  0.16259785  0.83859505  0.84681237     0.05910
C859        C  0.12558893  0.82655995  0.83084740    -0.04060
C860        C  0.12772825  0.82958233  0.80215532    -0.08500
C861        C  0.16546040  0.84398705  0.78728537     0.05020
C862        C  0.20114582  0.85116347  0.80283847    -0.03530
Br863      Br  0.24942241  0.84905172  0.78915412    -0.03230
H864        H  0.23045076  0.86592524  0.84137608     0.08930
H865        H  0.09923476  0.82169257  0.79129830     0.06950
Br866      Br  0.06945082  0.80396367  0.84506924    -0.03650
C867        C  0.21416781  0.57962517  0.64309300    -0.10290
C868        C  0.20045076  0.60195401  0.65945120     0.05910
C869        C  0.22973546  0.64277497  0.66904208    -0.04060
C870        C  0.27136909  0.66255539  0.66003367    -0.08500
C871        C  0.28538458  0.64241060  0.64114774     0.05020
C872        C  0.25616785  0.59878861  0.63428570    -0.03530
Br873      Br  0.26906763  0.56365270  0.61101693    -0.03230
H874        H  0.19182924  0.54742019  0.63653016     0.08930
H875        H  0.29220283  0.69426987  0.66787102     0.06950
Br876      Br  0.21412637  0.67342621  0.69412891    -0.03650
C877        C  0.37249872  0.79035648  0.63111847    -0.10290
C878        C  0.40282502  0.80483322  0.65193349     0.05910
C879        C  0.40750721  0.77482812  0.66645381    -0.04060
C880        C  0.38208219  0.73172707  0.65978892    -0.08500
C881        C  0.35320195  0.71621015  0.63708499     0.05020
C882        C  0.34641977  0.74732826  0.62477103    -0.03530
Br883      Br  0.29765344  0.73852802  0.60573789    -0.03230
H884        H  0.36642564  0.81279351  0.62118262     0.08930
H885        H  0.38596656  0.71045264  0.67271558     0.06950
Br886      Br  0.44939265  0.79008700  0.69477738    -0.03650
C887        C  0.34155735  0.61468075  0.65837824    -0.10290
C888        C  0.35841949  0.64953224  0.64037977     0.05910
C889        C  0.40223579  0.66750504  0.63352048    -0.04060
C890        C  0.42350127  0.64628649  0.63978822    -0.08500
C891        C  0.40333718  0.60764713  0.65328384     0.05020
C892        C  0.36260506  0.59293123  0.66378809    -0.03530
Br893      Br  0.33407450  0.54372317  0.68622617    -0.03230
H894        H  0.31106006  0.60251978  0.66785472     0.08930
H895        H  0.45558753  0.65910286  0.63259004     0.06950
Br896      Br  0.43447065  0.71764240  0.61195963    -0.03650
C897        C  0.27524841  0.65996434  0.97241800    -0.10290
C898        C  0.28857533  0.64035389  0.99142066     0.05910
C899        C  0.25737541  0.59907700  0.50036711    -0.04060
C900        C  0.21524097  0.58193727  0.99319272    -0.08500
C901        C  0.20287134  0.60331654  0.97607618     0.05020
C902        C  0.23299368  0.64199108  0.96500772    -0.03530
Br903      Br  0.21755834  0.67215886  0.94048294    -0.03230
H904        H  0.29731521  0.68967316  0.96316255     0.08930
H905        H  0.19185150  0.55107625  0.50061661     0.06950
Br906      Br  0.26767530  0.56186782  0.52136748    -0.03650
C907        C  0.37145812  0.78677341  0.50044078    -0.10290
C908        C  0.40500662  0.80198910  0.98187268     0.05910
C909        C  0.41422588  0.77294449  0.96929332    -0.04060
C910        C  0.39009961  0.73006546  0.97539347    -0.08500
C911        C  0.35741386  0.71353663  0.99567715     0.05020
C912        C  0.34634721  0.74362728  0.50616582    -0.03530
Br913      Br  0.29319451  0.73224035  0.52108955    -0.03230
H914        H  0.36212840  0.80840936  0.50870059     0.08930
H915        H  0.39715992  0.70975655  0.96295758     0.06950
Br916      Br  0.46018482  0.78942908  0.94388699    -0.03650
C917        C  0.37069058  0.59170745  0.96703167    -0.10290
C918        C  0.41027672  0.60800529  0.97932564     0.05910
C919        C  0.42840762  0.64745280  0.49337917    -0.04060
C920        C  0.40361373  0.66528305  0.49918511    -0.08500
C921        C  0.36094197  0.64575044  0.99048811     0.05020
C922        C  0.34709085  0.61146345  0.97079513    -0.03530
Br923      Br  0.30130249  0.59199373  0.94478373    -0.03230
H924        H  0.35838064  0.56368512  0.95380631     0.08930
H925        H  0.41676041  0.69315233  0.51261850     0.06950
Br926      Br  0.48361683  0.67534549  0.50981815    -0.03650
C927        C  0.35061249  0.64635416  0.58139440    -0.10290
C928        C  0.32654951  0.66066273  0.59580029     0.05910
C929        C  0.29497471  0.66039367  0.57866845    -0.04060
C930        C  0.29989812  0.66252664  0.54995494    -0.08500
C931        C  0.33151100  0.65908178  0.53571180     0.05020
C932        C  0.35162199  0.64290013  0.55262626    -0.03530
Br933      Br  0.36630551  0.60059759  0.54292175    -0.03230
H934        H  0.36476186  0.63167880  0.59215167     0.08930
H935        H  0.27393638  0.65982048  0.53842788     0.06950
Br936      Br  0.23723839  0.64287678  0.58858896    -0.03650
C937        C  0.83442169  0.16437969  0.00305836    -0.03620
C938        C  0.83051577  0.16731188  0.12854296    -0.03620
C939        C  0.66203656  0.33573371  0.37938608    -0.03620
C940        C  0.66327254  0.34851745  0.25544820    -0.03620
N941        N  0.56179787  0.09629363  0.41460930    -0.07250
N942        N  0.57694257  0.12813202  0.39758748    -0.59370
N943        N  0.59538958  0.06679689  0.46868374    -0.06930
N944        N  0.62902449  0.08404801  0.48479102    -0.61500
N945        N  0.60430495  0.05681517  0.44423171    -0.06530
N946        N  0.64398671  0.06685755  0.44317233    -0.59350
N947        N  0.55387007  0.10745241  0.43891621    -0.06210
N948        N  0.56319260  0.14705056  0.43890354    -0.61850
C949        C  0.57700240  0.15930663  0.41290977     0.94930
C950        C  0.65868333  0.08332781  0.46857896     0.94700
N951        N  0.98121374  0.49001762  0.01128720    -0.07440
N952        N  0.97213698  0.47517506  0.03664957    -0.59950
N953        N  0.97760019  0.06629452  0.47806038    -0.05560
N954        N  0.97300449  0.09943692  0.47819781    -0.61200
N955        N  0.94081419  0.03106227  0.47771996    -0.07470
N956        N  0.91018983  0.03975716  0.47765919    -0.60220
N957        N  0.51769830  0.02574300  0.01114504    -0.05200
N958        N  0.53385017  0.03590216  0.03645447    -0.61290
Mn959      Mn  0.53667114  0.06697179  0.47483729     1.18440
C960        C  0.50542116  0.00376025  0.05212139     0.97010
C961        C  0.93094453  0.08265474  0.47810867     0.97670
N962        N  0.56030942  0.47789451  0.40518463    -0.07490
N963        N  0.59298557  0.47272786  0.40283997    -0.63790
N964        N  0.98165639  0.48037539  0.37342778    -0.06290
N965        N  0.96457118  0.47178988  0.34835516    -0.64470
N966        N  0.51732262  0.01694582  0.37363920    -0.06990
N967        N  0.52505318  0.03387187  0.34890394    -0.64060
N968        N  0.52496112  0.44128503  0.40571256    -0.05890
N969        N  0.53295811  0.41023436  0.40371097    -0.64750
Mn970      Mn  0.56132677  0.03732601  0.40893475     1.10660
C971        C  0.57557690  0.43042948  0.40178500     0.98230
C972        C  0.99176842  0.00575054  0.33335506     0.98310
N973        N  0.89495565  0.44893949  0.43943390    -0.07000
N974        N  0.85539618  0.43964848  0.43974536    -0.62370
N975        N  0.94712467  0.39830671  0.44646874    -0.06320
N976        N  0.93955563  0.35925304  0.44716450    -0.59100
N977        N  0.93735356  0.40911436  0.47035535    -0.07630
N978        N  0.92283940  0.37737521  0.48762585    -0.61940
N979        N  0.90385223  0.43711679  0.41563160    -0.06620
N980        N  0.87023981  0.41919819  0.39942092    -0.59130
Mn981      Mn  0.93771231  0.46928255  0.47525508     1.20190
Mn982      Mn  0.96381524  0.43832700  0.40974658     1.10090
Cl983      Cl  0.99984098  0.00281783  0.44223675    -0.87100
C984        C  0.84045750  0.42163956  0.41458784     0.95240
C985        C  0.92495741  0.34657481  0.47303053     0.95030
N986        N  0.93822887  0.03392955  0.15634895    -0.07250
N987        N  0.90654568  0.04098968  0.15539337    -0.59370
N988        N  0.51663467  0.02896212  0.12395186    -0.06930
N989        N  0.53308742  0.03800162  0.09877653    -0.61500
N990        N  0.98066949  0.49266849  0.12334812    -0.06530
N991        N  0.97218396  0.47643815  0.09789956    -0.59350
N992        N  0.97435721  0.06995759  0.15704238    -0.06210
N993        N  0.96802566  0.10211868  0.15645792    -0.61850
C994        C  0.92557469  0.08370800  0.15563725     0.94930
C995        C  0.50530818  0.00465475  0.08278534     0.94700
N996        N  0.60227669  0.06205816  0.19158832    -0.07440
N997        N  0.64090951  0.06871358  0.19213812    -0.59950
N998        N  0.55103576  0.11371897  0.19808896    -0.05560
N999        N  0.56004164  0.15334019  0.19878200    -0.61200
N1000       N  0.55959489  0.10365575  0.22214022    -0.07470
N1001       N  0.57524419  0.13654013  0.23946265    -0.60220
N1002       N  0.59392475  0.07176947  0.16736303    -0.05200
N1003       N  0.62708763  0.08555229  0.15096834    -0.61290
Mn1004     Mn  0.53462926  0.07181468  0.16104098     1.18440
C1005       C  0.65576636  0.08269689  0.16661980     0.97010
C1006       C  0.57485913  0.16712361  0.22470485     0.97670
N1007       N  0.93624473  0.41302043  0.16302482    -0.07490
N1008       N  0.92204671  0.38019926  0.14570845    -0.63790
N1009       N  0.90106850  0.44408843  0.21769927    -0.06290
N1010       N  0.86758420  0.42963954  0.23392808    -0.64470
N1011       N  0.89271144  0.45392871  0.19349915    -0.06990
N1012       N  0.85373032  0.44626055  0.19268740    -0.64060
N1013       N  0.94519109  0.40342535  0.18706587    -0.05890
N1014       N  0.93753591  0.36433928  0.18650511    -0.64750
Mn1015     Mn  0.93633808  0.47285991  0.15850839     1.10660
C1016       C  0.92358419  0.35012665  0.16054420     0.98230
C1017       C  0.83858562  0.43174387  0.21805592     0.98310
N1018       N  0.51428574  0.02318084  0.26204632    -0.07000
N1019       N  0.52328256  0.03746151  0.28794461    -0.62370
N1020       N  0.52226364  0.44725736  0.22744340    -0.06320
N1021       N  0.53031003  0.41612723  0.22797052    -0.59100
N1022       N  0.55760348  0.48395468  0.22887411    -0.07630
N1023       N  0.59027605  0.47875957  0.23058587    -0.61940
N1024       N  0.97857944  0.48659081  0.26106167    -0.06620
N1025       N  0.96286798  0.47551249  0.28626786    -0.59130
Mn1026     Mn  0.55879796  0.04381193  0.22669635     1.20190
Mn1027     Mn  0.96111010  0.44464392  0.22384586     1.10090
Cl1028     Cl  0.99764634  0.00834226  0.19256308    -0.87100
C1029       C  0.99074897  0.00778274  0.30282814     0.95240
C1030       C  0.57294201  0.43644190  0.22963055     0.95030
C1031       C  0.57375666  0.23360024  0.23171059    -0.10290
C1032       C  0.59562083  0.21202824  0.23346435     0.05910
C1033       C  0.63753935  0.23414889  0.24254950    -0.03760
C1034       C  0.65754193  0.27746217  0.24796016    -0.08500
C1035       C  0.63689077  0.30081360  0.24584626     0.05020
C1036       C  0.59260007  0.27658214  0.23933519    -0.03530
Br1037     Br  0.55170019  0.29394453  0.24416550    -0.03230
H1038       H  0.54076657  0.21606501  0.22580280     0.08930
H1039       H  0.69024585  0.29316480  0.25370657     0.06950
Br1040     Br  0.67000380  0.20748352  0.24726535    -0.03650
C1041       C  0.61759841  0.42402979  0.26045843    -0.10290
C1042       C  0.59738556  0.41592297  0.23497707     0.05910
C1043       C  0.60362558  0.39145892  0.21496983    -0.04060
C1044       C  0.62749941  0.37296131  0.22157719    -0.08500
C1045       C  0.64294300  0.37557248  0.24872763     0.05020
C1046       C  0.64100844  0.40549934  0.26744295    -0.03530
Br1047     Br  0.67159152  0.42846083  0.30171093    -0.03230
H1048       H  0.61531866  0.44550543  0.27516476     0.08930
H1049       H  0.63080565  0.35342890  0.20595262     0.06950
Br1050     Br  0.57952310  0.38191395  0.17866368    -0.03650
C1051       C  0.76282844  0.38080968  0.20927036    -0.10290
C1052       C  0.79391523  0.41397805  0.22543805     0.05910
C1053       C  0.78157206  0.43063485  0.24739091    -0.04060
C1054       C  0.73890987  0.41154201  0.25438503    -0.08500
C1055       C  0.70782221  0.37311166  0.24163057     0.05020
C1056       C  0.72010137  0.36079341  0.21660038    -0.03530
Br1057     Br  0.68214496  0.32109448  0.18915683    -0.03230
H1058       H  0.77195375  0.37006931  0.19085601     0.08930
H1059       H  0.73116793  0.42449345  0.27198700     0.06950
Br1060     Br  0.82202055  0.47794801  0.26939584    -0.03650
C1061       C  0.61779134  0.25526699  0.36903357    -0.10290
C1062       C  0.63892385  0.28906627  0.38861732     0.05910
C1063       C  0.64039085  0.27791234  0.41655227    -0.04060
C1064       C  0.61958534  0.23551538  0.42383844    -0.08500
C1065       C  0.59719100  0.20317178  0.40422208     0.05020
C1066       C  0.59630599  0.21328891  0.37663558    -0.03530
Br1067     Br  0.56477473  0.17153959  0.34824981    -0.03230
H1068       H  0.61782207  0.26013437  0.34722681     0.08930
H1069       H  0.62079134  0.22779735  0.44517807     0.06950
Br1070     Br  0.66574743  0.31759780  0.44704525    -0.03650
C1071       C  0.65700145  0.40180661  0.37997142    -0.10290
C1072       C  0.63959121  0.36011939  0.38976905     0.05910
C1073       C  0.60084665  0.34366682  0.40518237    -0.04060
C1074       C  0.58244042  0.36839018  0.40953274    -0.08500
C1075       C  0.59975631  0.40868587  0.39885309     0.05020
C1076       C  0.63814487  0.42594593  0.38451071    -0.03530
Br1077     Br  0.66548609  0.48103639  0.36865188    -0.03230
H1078       H  0.68570342  0.41563573  0.36785761     0.08930
H1079       H  0.55281210  0.35514642  0.42060721     0.06950
Br1080     Br  0.56352564  0.28695316  0.41753027    -0.03650
C1081       C  0.77737442  0.36110631  0.39295688    -0.10290
C1082       C  0.79543854  0.40016310  0.40688827     0.05910
C1083       C  0.76963519  0.41641714  0.41458509    -0.04060
C1084       C  0.72707987  0.39465636  0.40708328    -0.08500
C1085       C  0.70861098  0.35670719  0.39083184     0.05020
C1086       C  0.73472229  0.33882343  0.38557758    -0.03530
Br1087     Br  0.71719878  0.28626308  0.36589972    -0.03230
H1088       H  0.79667772  0.34751496  0.38785112     0.08930
H1089       H  0.70892297  0.40813412  0.41472833     0.06950
Br1090     Br  0.79096302  0.46949189  0.43418205    -0.03650
C1091       C  0.70033933  0.35365489  0.33159377    -0.10290
C1092       C  0.66256122  0.33859093  0.34681218     0.05910
C1093       C  0.62555350  0.32655085  0.33084486    -0.04060
C1094       C  0.62769668  0.32957517  0.30215305    -0.08500
C1095       C  0.66543177  0.34398610  0.28728524     0.05020
C1096       C  0.70111757  0.35116919  0.30284066    -0.03530
Br1097     Br  0.74940323  0.34907222  0.28915945    -0.03230
H1098       H  0.73041631  0.36593268  0.34138059     0.08930
H1099       H  0.59920389  0.32168196  0.29129467     0.06950
Br1100     Br  0.56941207  0.30394548  0.34506287    -0.03650
C1101       C  0.71420064  0.07962786  0.14309705    -0.10290
C1102       C  0.70047299  0.10196366  0.15943821     0.05910
C1103       C  0.72974720  0.14279624  0.16901535    -0.04060
C1104       C  0.77138511  0.16257420  0.16001608    -0.08500
C1105       C  0.78541258  0.14241997  0.14114680     0.05020
C1106       C  0.75620180  0.09879370  0.13429197    -0.03530
Br1107     Br  0.76911060  0.06365594  0.11103189    -0.03230
H1108       H  0.69186837  0.04741652  0.13654301     0.08930
H1109       H  0.79221057  0.19429614  0.16784415     0.06950
Br1110     Br  0.71411486  0.17346799  0.19406753    -0.03650
C1111       C  0.87252293  0.29036259  0.13111028    -0.10290
C1112       C  0.90283593  0.30484054  0.15193368     0.05910
C1113       C  0.90751605  0.27483776  0.16645851    -0.04060
C1114       C  0.88209838  0.23173664  0.15979159    -0.08500
C1115       C  0.85322875  0.21621817  0.13708192     0.05020
C1116       C  0.84645154  0.24733477  0.12475998    -0.03530
Br1117     Br  0.79770066  0.23853474  0.10570574    -0.03230
H1118       H  0.86645355  0.31279828  0.12116880     0.08930
H1119       H  0.88597934  0.21046329  0.17272163     0.06950
Br1120     Br  0.94938885  0.29010036  0.19479160    -0.03650
C1121       C  0.84158693  0.11469516  0.15838762    -0.10290
C1122       C  0.85844931  0.14954304  0.14038605     0.05910
C1123       C  0.90226671  0.16751644  0.13353031    -0.04060
C1124       C  0.92353048  0.14629656  0.13979944    -0.08500
C1125       C  0.90336384  0.10765641  0.15329433     0.05020
C1126       C  0.86263228  0.09294346  0.16379854    -0.03530
Br1127     Br  0.83409934  0.04373633  0.18623718    -0.03230
H1128       H  0.81109069  0.10253790  0.16786492     0.08930
H1129       H  0.95561733  0.15911239  0.13260264     0.06950
Br1130     Br  0.93450572  0.21765571  0.11197201    -0.03650
C1131       C  0.77527594  0.15997020  0.47242830    -0.10290
C1132       C  0.78860994  0.14035721  0.49142369     0.05910
C1133       C  0.75741561  0.09907615  0.00036712    -0.04060
C1134       C  0.71527894  0.08193448  0.49319785    -0.08500
C1135       C  0.70290223  0.10331755  0.47609012     0.05020
C1136       C  0.73301923  0.14199647  0.46502426    -0.03530
Br1137     Br  0.71757409  0.17216895  0.44051070    -0.03230
H1138       H  0.79733822  0.18968213  0.46317457     0.08930
H1139       H  0.69189366  0.05106954  0.00061862     0.06950
Br1140     Br  0.76772868  0.06186848  0.02135934    -0.03650
C1141       C  0.87147213  0.28677451  0.00044829    -0.10290
C1142       C  0.90501165  0.30199454  0.48187318     0.05910
C1143       C  0.91423620  0.27295525  0.46929114    -0.04060
C1144       C  0.89012301  0.23007654  0.47539528    -0.08500
C1145       C  0.85744245  0.21354305  0.49568236     0.05020
C1146       C  0.84637135  0.24362848  0.00617539    -0.03530
Br1147     Br  0.79322189  0.23223476  0.02110911    -0.03230
H1148       H  0.86213924  0.30840621  0.00871164     0.08930
H1149       H  0.89718673  0.20977110  0.46295833     0.06950
Br1150     Br  0.96018342  0.28944693  0.44387410    -0.03650
C1151       C  0.87072414  0.09171677  0.46702817    -0.10290
C1152       C  0.91031168  0.10801457  0.47931992     0.05910
C1153       C  0.92844534  0.14746445  0.99337109    -0.04060
C1154       C  0.90365169  0.16529466  0.99917979    -0.08500
C1155       C  0.86097844  0.14576047  0.49048662     0.05020
C1156       C  0.84712618  0.11147445  0.47079263    -0.03530
Br1157     Br  0.80134075  0.09201153  0.44477938    -0.03230
H1158       H  0.85841229  0.06369407  0.45380303     0.08930
H1159       H  0.91680011  0.19316484  0.01261239     0.06950
Br1160     Br  0.98366002  0.17536270  0.00980213    -0.03650
C1161       C  0.85065445  0.14636765  0.08139733    -0.10290
C1162       C  0.82658070  0.16066466  0.09580188     0.05910
C1163       C  0.79499887  0.16038045  0.07866918    -0.04060
C1164       C  0.79992259  0.16251304  0.04995615    -0.08500
C1165       C  0.83154548  0.15908442  0.03571387     0.05020
C1166       C  0.85166623  0.14291411  0.05262890    -0.03530
Br1167     Br  0.86636393  0.10062249  0.04292497    -0.03230
H1168       H  0.86481165  0.13170101  0.09215547     0.08930
H1169       H  0.77395868  0.15980235  0.03842906     0.06950
Br1170     Br  0.73726388  0.14286925  0.08859029    -0.03650
C1171       C  0.83442174  0.16437978  0.50305838    -0.03620
C1172       C  0.83051575  0.16731187  0.62854299    -0.03620
C1173       C  0.66203654  0.33573367  0.87938607    -0.03620
C1174       C  0.66327251  0.34851744  0.75544819    -0.03620
N1175       N  0.56179784  0.09629358  0.91460929    -0.07250
N1176       N  0.57694254  0.12813198  0.89758747    -0.59370
N1177       N  0.59538954  0.06679685  0.96868373    -0.06930
N1178       N  0.62902446  0.08404796  0.98479100    -0.61500
N1179       N  0.60430491  0.05681512  0.94423170    -0.06530
N1180       N  0.64398667  0.06685749  0.94317232    -0.59350
N1181       N  0.55387003  0.10745237  0.93891620    -0.06210
N1182       N  0.56319258  0.14705052  0.93890354    -0.61850
C1183       C  0.57700238  0.15930658  0.91290976     0.94930
C1184       C  0.65868329  0.08332775  0.96857894     0.94700
N1185       N  0.98121375  0.49001766  0.51128720    -0.07440
N1186       N  0.97213699  0.47517509  0.53664957    -0.59950
N1187       N  0.97760016  0.06629448  0.97806038    -0.05560
N1188       N  0.97300447  0.09943688  0.97819780    -0.61200
N1189       N  0.94081416  0.03106223  0.97771996    -0.07470
N1190       N  0.91018981  0.03975712  0.97765919    -0.60220
N1191       N  0.51769832  0.02574304  0.51114504    -0.05200
N1192       N  0.53385019  0.03590219  0.53645448    -0.61290
Mn1193     Mn  0.53667111  0.06697175  0.97483728     1.18440
C1194       C  0.50542118  0.00376027  0.55212139     0.97010
C1195       C  0.93094450  0.08265470  0.97810865     0.97670
N1196       N  0.56030939  0.47789445  0.90518463    -0.07490
N1197       N  0.59298554  0.47272781  0.90283997    -0.63790
N1198       N  0.98165636  0.48037534  0.87342778    -0.06290
N1199       N  0.96457115  0.47178982  0.84835516    -0.64470
N1200       N  0.51732257  0.01694578  0.87363919    -0.06990
N1201       N  0.52505314  0.03387183  0.84890393    -0.64060
N1202       N  0.52496109  0.44128498  0.90571256    -0.05890
N1203       N  0.53295808  0.41023431  0.90371097    -0.64750
Mn1204     Mn  0.56132673  0.03732597  0.90893474     1.10660
C1205       C  0.57557688  0.43042942  0.90178499     0.98230
C1206       C  0.99176838  0.00575051  0.83335506     0.98310
N1207       N  0.89495563  0.44893944  0.93943390    -0.07000
N1208       N  0.85539616  0.43964844  0.93974536    -0.62370
N1209       N  0.94712464  0.39830666  0.94646874    -0.06320
N1210       N  0.93955558  0.35925298  0.94716450    -0.59100
N1211       N  0.93735352  0.40911431  0.97035535    -0.07630
N1212       N  0.92283934  0.37737515  0.98762585    -0.61940
N1213       N  0.90385221  0.43711675  0.91563160    -0.06620
N1214       N  0.87023979  0.41919815  0.89942092    -0.59130
Mn1215     Mn  0.93771229  0.46928251  0.97525509     1.20190
Mn1216     Mn  0.96381522  0.43832695  0.90974658     1.10090
Cl1217     Cl  0.99984095  0.00281779  0.94223674    -0.87100
C1218       C  0.84045748  0.42163952  0.91458784     0.95240
C1219       C  0.92495735  0.34657474  0.97303053     0.95030
N1220       N  0.93822886  0.03392953  0.65634894    -0.07250
N1221       N  0.90654566  0.04098964  0.65539336    -0.59370
N1222       N  0.51663468  0.02896212  0.62395187    -0.06930
N1223       N  0.53308743  0.03800162  0.59877654    -0.61500
N1224       N  0.98066947  0.49266850  0.62334811    -0.06530
N1225       N  0.97218394  0.47643816  0.59789955    -0.59350
N1226       N  0.97435720  0.06995757  0.65704237    -0.06210
N1227       N  0.96802564  0.10211866  0.65645791    -0.61850
C1228       C  0.92557467  0.08370797  0.65563724     0.94930
C1229       C  0.50530820  0.00465476  0.58278534     0.94700
N1230       N  0.60227667  0.06205815  0.69158833    -0.07440
N1231       N  0.64090948  0.06871356  0.69213814    -0.59950
N1232       N  0.55103573  0.11371896  0.69808896    -0.05560
N1233       N  0.56004161  0.15334018  0.69878200    -0.61200
N1234       N  0.55959486  0.10365574  0.72214023    -0.07470
N1235       N  0.57524415  0.13654012  0.73946266    -0.60220
N1236       N  0.59392474  0.07176946  0.66736304    -0.05200
N1237       N  0.62708762  0.08555227  0.65096836    -0.61290
Mn1238     Mn  0.53462925  0.07181467  0.66104098     1.18440
C1239       C  0.65576634  0.08269686  0.66661983     0.97010
C1240       C  0.57485908  0.16712359  0.72470485     0.97670
N1241       N  0.93624470  0.41302043  0.66302480    -0.07490
N1242       N  0.92204667  0.38019926  0.64570843    -0.63790
N1243       N  0.90106847  0.44408841  0.71769926    -0.06290
N1244       N  0.86758417  0.42963953  0.73392807    -0.64470
N1245       N  0.89271141  0.45392870  0.69349914    -0.06990
N1246       N  0.85373029  0.44626054  0.69268739    -0.64060
N1247       N  0.94519107  0.40342534  0.68706585    -0.05890
N1248       N  0.93753590  0.36433927  0.68650508    -0.64750
Mn1249     Mn  0.93633805  0.47285990  0.65850838     1.10660
C1250       C  0.92358417  0.35012665  0.66054417     0.98230
C1251       C  0.83858560  0.43174387  0.71805592     0.98310
N1252       N  0.51428570  0.02318081  0.76204632    -0.07000
N1253       N  0.52328252  0.03746148  0.78794461    -0.62370
N1254       N  0.52226362  0.44725735  0.72744338    -0.06320
N1255       N  0.53031000  0.41612722  0.72797051    -0.59100
N1256       N  0.55760345  0.48395467  0.72887411    -0.07630
N1257       N  0.59027602  0.47875956  0.73058587    -0.61940
N1258       N  0.97857940  0.48659078  0.76106167    -0.06620
N1259       N  0.96286795  0.47551244  0.78626785    -0.59130
Mn1260     Mn  0.55879793  0.04381192  0.72669635     1.20190
Mn1261     Mn  0.96111007  0.44464390  0.72384585     1.10090
Cl1262     Cl  0.99764632  0.00834225  0.69256308    -0.87100
C1263       C  0.99074893  0.00778271  0.80282814     0.95240
C1264       C  0.57294199  0.43644190  0.72963054     0.95030
C1265       C  0.57375662  0.23360023  0.73171060    -0.10290
C1266       C  0.59562078  0.21202823  0.73346434     0.05910
C1267       C  0.63753932  0.23414889  0.74254947    -0.03760
C1268       C  0.65754191  0.27746217  0.74796012    -0.08500
C1269       C  0.63689074  0.30081359  0.74584624     0.05020
C1270       C  0.59260003  0.27658214  0.73933519    -0.03530
Br1271     Br  0.55170016  0.29394453  0.74416551    -0.03230
H1272       H  0.54076652  0.21606499  0.72580282     0.08930
H1273       H  0.69024583  0.29316480  0.75370651     0.06950
Br1274     Br  0.67000378  0.20748353  0.74726529    -0.03650
C1275       C  0.61759839  0.42402978  0.76045843    -0.10290
C1276       C  0.59738553  0.41592297  0.73497707     0.05910
C1277       C  0.60362555  0.39145892  0.71496982    -0.04060
C1278       C  0.62749938  0.37296131  0.72157719    -0.08500
C1279       C  0.64294297  0.37557248  0.74872762     0.05020
C1280       C  0.64100842  0.40549933  0.76744294    -0.03530
Br1281     Br  0.67159150  0.42846081  0.80171092    -0.03230
H1282       H  0.61531863  0.44550543  0.77516476     0.08930
H1283       H  0.63080561  0.35342889  0.70595261     0.06950
Br1284     Br  0.57952309  0.38191396  0.67866367    -0.03650
C1285       C  0.76282841  0.38080970  0.70927034    -0.10290
C1286       C  0.79391520  0.41397805  0.72543804     0.05910
C1287       C  0.78157204  0.43063483  0.74739092    -0.04060
C1288       C  0.73890985  0.41154199  0.75438504    -0.08500
C1289       C  0.70782218  0.37311165  0.74163056     0.05020
C1290       C  0.72010134  0.36079343  0.71660037    -0.03530
Br1291     Br  0.68214493  0.32109452  0.68915680    -0.03230
H1292       H  0.77195372  0.37006935  0.69085599     0.08930
H1293       H  0.73116791  0.42449342  0.77198701     0.06950
Br1294     Br  0.82202054  0.47794795  0.76939587    -0.03650
C1295       C  0.61779131  0.25526695  0.86903356    -0.10290
C1296       C  0.63892384  0.28906623  0.88861731     0.05910
C1297       C  0.64039085  0.27791230  0.91655226    -0.04060
C1298       C  0.61958534  0.23551534  0.92383843    -0.08500
C1299       C  0.59719098  0.20317174  0.90422207     0.05020
C1300       C  0.59630596  0.21328887  0.87663557    -0.03530
Br1301     Br  0.56477468  0.17153955  0.84824981    -0.03230
H1302       H  0.61782203  0.26013433  0.84722680     0.08930
H1303       H  0.62079134  0.22779731  0.94517806     0.06950
Br1304     Br  0.66574745  0.31759776  0.94704523    -0.03650
C1305       C  0.65700143  0.40180657  0.87997141    -0.10290
C1306       C  0.63959120  0.36011935  0.88976904     0.05910
C1307       C  0.60084664  0.34366677  0.90518236    -0.04060
C1308       C  0.58244040  0.36839014  0.90953274    -0.08500
C1309       C  0.59975629  0.40868583  0.89885309     0.05020
C1310       C  0.63814484  0.42594588  0.88451070    -0.03530
Br1311     Br  0.66548606  0.48103634  0.86865186    -0.03230
H1312       H  0.68570339  0.41563569  0.86785759     0.08930
H1313       H  0.55281209  0.35514638  0.92060721     0.06950
Br1314     Br  0.56352563  0.28695313  0.91753027    -0.03650
C1315       C  0.77737440  0.36110627  0.89295687    -0.10290
C1316       C  0.79543852  0.40016306  0.90688826     0.05910
C1317       C  0.76963518  0.41641710  0.91458508    -0.04060
C1318       C  0.72707985  0.39465633  0.90708327    -0.08500
C1319       C  0.70861097  0.35670715  0.89083183     0.05020
C1320       C  0.73472227  0.33882339  0.88557757    -0.03530
Br1321     Br  0.71719876  0.28626303  0.86589971    -0.03230
H1322       H  0.79667771  0.34751492  0.88785112     0.08930
H1323       H  0.70892296  0.40813409  0.91472831     0.06950
Br1324     Br  0.79096301  0.46949186  0.93418203    -0.03650
C1325       C  0.70033930  0.35365484  0.83159375    -0.10290
C1326       C  0.66256119  0.33859089  0.84681217     0.05910
C1327       C  0.62555347  0.32655082  0.83084485    -0.04060
C1328       C  0.62769665  0.32957515  0.80215304    -0.08500
C1329       C  0.66543174  0.34398608  0.78728523     0.05020
C1330       C  0.70111754  0.35116915  0.80284065    -0.03530
Br1331     Br  0.74940318  0.34907215  0.78915943    -0.03230
H1332       H  0.73041628  0.36593261  0.84138057     0.08930
H1333       H  0.59920387  0.32168196  0.79129467     0.06950
Br1334     Br  0.56941205  0.30394546  0.84506287    -0.03650
C1335       C  0.71420058  0.07962786  0.64309698    -0.10290
C1336       C  0.70047297  0.10196360  0.65943824     0.05910
C1337       C  0.72974724  0.14279609  0.66901550    -0.04060
C1338       C  0.77138514  0.16257406  0.66001622    -0.08500
C1339       C  0.78541255  0.14241992  0.64114681     0.05020
C1340       C  0.75620175  0.09879368  0.63429192    -0.03530
Br1341     Br  0.76911053  0.06365597  0.61103178    -0.03230
H1342       H  0.69186828  0.04741656  0.63654286     0.08930
H1343       H  0.79221066  0.19429593  0.66784438     0.06950
Br1344     Br  0.71411502  0.17346769  0.69406789    -0.03650
C1345       C  0.87252270  0.29036251  0.63111038    -0.10290
C1346       C  0.90283591  0.30484054  0.65193365     0.05910
C1347       C  0.90751619  0.27483782  0.66645843    -0.04060
C1348       C  0.88209853  0.23173668  0.65979155    -0.08500
C1349       C  0.85322871  0.21621814  0.63708198     0.05020
C1350       C  0.84645128  0.24733467  0.62476017    -0.03530
Br1351     Br  0.79769999  0.23853445  0.60570638    -0.03230
H1352       H  0.86645316  0.31279815  0.62116899     0.08930
H1353       H  0.88597964  0.21046339  0.67272155     0.06950
Br1354     Br  0.94938919  0.29010052  0.69479139    -0.03650
C1355       C  0.84158689  0.11469509  0.65838761    -0.10290
C1356       C  0.85844928  0.14954300  0.64038606     0.05910
C1357       C  0.90226667  0.16751639  0.63353030    -0.04060
C1358       C  0.92353045  0.14629651  0.63979943    -0.08500
C1359       C  0.90336381  0.10765637  0.65329433     0.05020
C1360       C  0.86263224  0.09294339  0.66379852    -0.03530
Br1361     Br  0.83409929  0.04373624  0.68623713    -0.03230
H1362       H  0.81109063  0.10253781  0.66786489     0.08930
H1363       H  0.95561730  0.15911234  0.63260263     0.06950
Br1364     Br  0.93450568  0.21765564  0.61197199    -0.03650
C1365       C  0.77527589  0.15997018  0.97242832    -0.10290
C1366       C  0.78860990  0.14035714  0.99142366     0.05910
C1367       C  0.75741563  0.09907626  0.50036720    -0.04060
C1368       C  0.71527892  0.08193437  0.99319776    -0.08500
C1369       C  0.70290219  0.10331749  0.97609010     0.05020
C1370       C  0.73301918  0.14199646  0.96502429    -0.03530
Br1371     Br  0.71757400  0.17216900  0.94051080    -0.03230
H1372       H  0.79733815  0.18968216  0.96317463     0.08930
H1373       H  0.69189366  0.05106969  0.50061874     0.06950
Br1374     Br  0.76772867  0.06186862  0.52135948    -0.03650
C1375       C  0.87147216  0.28677458  0.50044826    -0.10290
C1376       C  0.90501159  0.30199447  0.98187319     0.05910
C1377       C  0.91423613  0.27295518  0.96929113    -0.04060
C1378       C  0.89012295  0.23007647  0.97539528    -0.08500
C1379       C  0.85744242  0.21354297  0.99568237     0.05020
C1380       C  0.84637136  0.24362855  0.50617535    -0.03530
Br1381     Br  0.79322184  0.23223484  0.52110895    -0.03230
H1382       H  0.86213926  0.30840628  0.50871160     0.08930
H1383       H  0.89718666  0.20977103  0.96295831     0.06950
Br1384     Br  0.96018333  0.28944685  0.94387407    -0.03650
C1385       C  0.87072414  0.09171675  0.96702813    -0.10290
C1386       C  0.91031166  0.10801452  0.97931991     0.05910
C1387       C  0.92844538  0.14746451  0.49337109    -0.04060
C1388       C  0.90365173  0.16529472  0.49917979    -0.08500
C1389       C  0.86097841  0.14576042  0.99048660     0.05020
C1390       C  0.84712617  0.11147443  0.97079259    -0.03530
Br1391     Br  0.80134081  0.09201160  0.94477929    -0.03230
H1392       H  0.85841230  0.06369406  0.95380298     0.08930
H1393       H  0.91680016  0.19316492  0.51261238     0.06950
Br1394     Br  0.98366008  0.17536277  0.50980211    -0.03650
C1395       C  0.85065439  0.14636762  0.58139735    -0.10290
C1396       C  0.82658073  0.16066472  0.59580190     0.05910
C1397       C  0.79499901  0.16038070  0.57866919    -0.04060
C1398       C  0.79992278  0.16251334  0.54995617    -0.08500
C1399       C  0.83154558  0.15908456  0.53571389     0.05020
C1400       C  0.85166624  0.14291415  0.55262892    -0.03530
Br1401     Br  0.86636397  0.10062256  0.54292497    -0.03230
H1402       H  0.86481150  0.13170088  0.59215549     0.08930
H1403       H  0.77395888  0.15980266  0.53842907     0.06950
Br1404     Br  0.73726392  0.14286921  0.58859021    -0.03650
C1405       C  0.83438705  0.66437383  0.00305607    -0.03620
C1406       C  0.83048633  0.66730458  0.12854189    -0.03620
C1407       C  0.66207768  0.83573728  0.37938624    -0.03620
C1408       C  0.66330031  0.84851847  0.25544846    -0.03620
N1409       N  0.56175854  0.59628831  0.41460659    -0.07250
N1410       N  0.57691374  0.62812839  0.39758611    -0.59370
N1411       N  0.59535634  0.56679169  0.46867608    -0.06930
N1412       N  0.62899440  0.58404622  0.48478042    -0.61500
N1413       N  0.60426828  0.55681005  0.44422281    -0.06530
N1414       N  0.64395152  0.56685731  0.44315952    -0.59350
N1415       N  0.55383641  0.60745020  0.43891427    -0.06210
N1416       N  0.56317476  0.64705364  0.43890328    -0.61850
C1417       C  0.57698686  0.65930836  0.41290947     0.94930
C1418       C  0.65865232  0.58333021  0.46856514     0.94700
N1419       N  0.98123979  0.99002274  0.01128760    -0.07440
N1420       N  0.97215941  0.97517978  0.03664974    -0.59950
N1421       N  0.97756802  0.56628938  0.47806360    -0.05560
N1422       N  0.97297113  0.59943105  0.47820123    -0.61200
N1423       N  0.94078232  0.53105656  0.47772577    -0.07470
N1424       N  0.91015718  0.53975011  0.47766676    -0.60220
N1425       N  0.51767169  0.52573851  0.01114323    -0.05200
N1426       N  0.53382661  0.53589825  0.03645199    -0.61290
Mn1427     Mn  0.53663924  0.56696750  0.47483521     1.18440
C1428       C  0.50540017  0.50375614  0.05212001     0.97010
C1429       C  0.93091088  0.58264737  0.47811486     0.97670
N1430       N  0.56035700  0.97790143  0.40519441    -0.07490
N1431       N  0.59303459  0.97273671  0.40285176    -0.63790
N1432       N  0.98170724  0.98037560  0.37342923    -0.06290
N1433       N  0.96462388  0.97178762  0.34835604    -0.64470
N1434       N  0.51727303  0.51694436  0.37363752    -0.06990
N1435       N  0.52500227  0.53387236  0.34890305    -0.64060
N1436       N  0.52500962  0.94129101  0.40572264    -0.05890
N1437       N  0.53300874  0.91024172  0.40372302    -0.64750
Mn1438     Mn  0.56128275  0.53732035  0.40892935     1.10660
C1439       C  0.57562774  0.93043854  0.40179832     0.98230
C1440       C  0.99171583  0.50575352  0.33335463     0.98310
N1441       N  0.89499673  0.94894355  0.43942739    -0.07000
N1442       N  0.85543732  0.93965170  0.43973568    -0.62370
N1443       N  0.94716153  0.89830977  0.44647318    -0.06320
N1444       N  0.93958085  0.85925198  0.44716927    -0.59100
N1445       N  0.93738441  0.90911835  0.47035728    -0.07630
N1446       N  0.92285470  0.87737595  0.48762614    -0.61940
N1447       N  0.90389643  0.93711793  0.41562734    -0.06620
N1448       N  0.87028580  0.91919636  0.39941492    -0.59130
Mn1449     Mn  0.93774501  0.96928776  0.47525229     1.20190
Mn1450     Mn  0.96386115  0.93832963  0.40974966     1.10090
Cl1451     Cl  0.99980240  0.50281357  0.44223487    -0.87100
C1452       C  0.84050175  0.92163942  0.41457864     0.95240
C1453       C  0.92496940  0.84657227  0.47303286     0.95030
N1454       N  0.93820663  0.53392480  0.15634136    -0.07250
N1455       N  0.90652276  0.54098335  0.15538323    -0.59370
N1456       N  0.51661621  0.52895727  0.12395142    -0.06930
N1457       N  0.53306863  0.53799740  0.09877584    -0.61500
N1458       N  0.98068770  0.99267369  0.12334886    -0.06530
N1459       N  0.97220191  0.97644281  0.09790044    -0.59350
N1460       N  0.97433448  0.56995346  0.15703626    -0.06210
N1461       N  0.96800157  0.60211367  0.15645016    -0.61850
C1462       C  0.92555039  0.58370131  0.15562699     0.94930
C1463       C  0.50528968  0.50465047  0.08278433     0.94700
N1464       N  0.60224939  0.56205497  0.19159660    -0.07440
N1465       N  0.64088269  0.56871159  0.19215043    -0.59950
N1466       N  0.55100987  0.61371756  0.19808812    -0.05560
N1467       N  0.56002389  0.65334157  0.19877937    -0.61200
N1468       N  0.55956293  0.60365289  0.22214093    -0.07470
N1469       N  0.57521508  0.63653806  0.23946254    -0.60220
N1470       N  0.59390129  0.57176453  0.16736933    -0.05200
N1471       N  0.62706687  0.58554607  0.15097718    -0.61290
Mn1472     Mn  0.53460683  0.57181104  0.16104065     1.18440
C1473       C  0.65574391  0.58269359  0.16663251     0.97010
C1474       C  0.57483914  0.66712440  0.22470287     0.97670
N1475       N  0.93626496  0.91302163  0.16302334    -0.07490
N1476       N  0.92205220  0.88019732  0.14570830    -0.63790
N1477       N  0.90110175  0.94408789  0.21770389    -0.06290
N1478       N  0.86761804  0.92963346  0.23393374    -0.64470
N1479       N  0.89274158  0.95393105  0.19350574    -0.06990
N1480       N  0.85375951  0.94625988  0.19269639    -0.64060
N1481       N  0.94521724  0.90342556  0.18706214    -0.05890
N1482       N  0.93755157  0.86433568  0.18650077    -0.64750
Mn1483     Mn  0.93636096  0.97286371  0.15851178     1.10660
C1484       C  0.92358712  0.85012159  0.16054198     0.98230
C1485       C  0.83861710  0.93173793  0.21806419     0.98310
N1486       N  0.51424402  0.52318122  0.26204756    -0.07000
N1487       N  0.52323598  0.53746336  0.28794571    -0.62370
N1488       N  0.52230125  0.94726012  0.22743456    -0.06320
N1489       N  0.53034970  0.91613141  0.22796133    -0.59100
N1490       N  0.55764028  0.98395833  0.22886447    -0.07630
N1491       N  0.59031419  0.97876529  0.23057487    -0.61940
N1492       N  0.97862179  0.98658964  0.26106162    -0.06620
N1493       N  0.96291554  0.97550957  0.28626884    -0.59130
Mn1494     Mn  0.55876336  0.54380934  0.22670124     1.20190
Mn1495     Mn  0.96114542  0.94464424  0.22384383     1.10090
Cl1496     Cl  0.99761772  0.50833995  0.19256374    -0.87100
C1497       C  0.99069888  0.50778619  0.30282779     0.95240
C1498       C  0.57298198  0.93644802  0.22961966     0.95030
C1499       C  0.57376168  0.73361468  0.23170656    -0.10290
C1500       C  0.59561338  0.71203041  0.23346090     0.05910
C1501       C  0.63753071  0.73413881  0.24254907    -0.03760
C1502       C  0.65754557  0.77745245  0.24796073    -0.08500
C1503       C  0.63690761  0.80081597  0.24584581     0.05020
C1504       C  0.59261663  0.77659671  0.23933350    -0.03530
Br1505     Br  0.55172948  0.79397514  0.24416793    -0.03230
H1506       H  0.54077179  0.71608877  0.22579792     0.08930
H1507       H  0.69024811  0.79314537  0.25370931     0.06950
Br1508     Br  0.66997671  0.70745556  0.24727024    -0.03650
C1509       C  0.61763205  0.92403518  0.26045299    -0.10290
C1510       C  0.59742687  0.91593177  0.23496882     0.05910
C1511       C  0.60367502  0.89147312  0.21496185    -0.04060
C1512       C  0.62754607  0.87297425  0.22157265    -0.08500
C1513       C  0.64297962  0.87558011  0.24872557     0.05020
C1514       C  0.64104051  0.90550432  0.26744055    -0.03530
Br1515     Br  0.67161815  0.92846343  0.30171059    -0.03230
H1516       H  0.61534749  0.94550830  0.27515903     0.08930
H1517       H  0.63085723  0.85344426  0.20594860     0.06950
Br1518     Br  0.57958512  0.88193463  0.17865212    -0.03650
C1519       C  0.76286175  0.88079752  0.20927923    -0.10290
C1520       C  0.79394676  0.91396784  0.22544679     0.05910
C1521       C  0.78160167  0.93062774  0.24739654    -0.04060
C1522       C  0.73893871  0.91153748  0.25438726    -0.08500
C1523       C  0.70785138  0.87310680  0.24163263     0.05020
C1524       C  0.72013352  0.86078354  0.21660599    -0.03530
Br1525     Br  0.68218056  0.82108419  0.18916135    -0.03230
H1526       H  0.77198926  0.87005535  0.19086674     0.08930
H1527       H  0.73119462  0.92449180  0.27198687     0.06950
Br1528     Br  0.82204827  0.97794203  0.26940157    -0.03650
C1529       C  0.61782026  0.75527237  0.36903327    -0.10290
C1530       C  0.63896253  0.78906966  0.38861688     0.05910
C1531       C  0.64043011  0.77791258  0.41655102    -0.04060
C1532       C  0.61960779  0.73551508  0.42383769    -0.08500
C1533       C  0.59719581  0.70317495  0.40422254     0.05020
C1534       C  0.59631649  0.71329495  0.37663594    -0.03530
Br1535     Br  0.56476621  0.67155186  0.34825108    -0.03230
H1536       H  0.61785305  0.76014066  0.34722651     0.08930
H1537       H  0.62081230  0.72779403  0.44517680     0.06950
Br1538     Br  0.66580631  0.81759549  0.44704303    -0.03650
C1539       C  0.65704620  0.90181249  0.37997561    -0.10290
C1540       C  0.63963610  0.86012503  0.38977285     0.05910
C1541       C  0.60089518  0.84367473  0.40519021    -0.04060
C1542       C  0.58249247  0.86840035  0.40954481    -0.08500
C1543       C  0.59980798  0.90869606  0.39886549     0.05020
C1544       C  0.63819379  0.92595460  0.38451994    -0.03530
Br1545     Br  0.66553700  0.98104697  0.36866394    -0.03230
H1546       H  0.68574534  0.91564009  0.36785890     0.08930
H1547       H  0.55286600  0.85515776  0.42062164     0.06950
Br1548     Br  0.56357159  0.78696160  0.41753776    -0.03650
C1549       C  0.77741630  0.86110519  0.39294904    -0.10290
C1550       C  0.79548386  0.90016449  0.40687765     0.05910
C1551       C  0.76968339  0.91642163  0.41457461    -0.04060
C1552       C  0.72712656  0.89465975  0.40707805    -0.08500
C1553       C  0.70865348  0.85670854  0.39082887     0.05020
C1554       C  0.73476246  0.83882242  0.38557317    -0.03530
Br1555     Br  0.71723181  0.78625817  0.36589843    -0.03230
H1556       H  0.79671771  0.84751173  0.38784333     0.08930
H1557       H  0.70897236  0.90813926  0.41472518     0.06950
Br1558     Br  0.79101714  0.96950315  0.43416413    -0.03650
C1559       C  0.70037265  0.85365195  0.33159143    -0.10290
C1560       C  0.66259788  0.83859508  0.34681238     0.05910
C1561       C  0.62558895  0.82656000  0.33084741    -0.04060
C1562       C  0.62772826  0.82958236  0.30215533    -0.08500
C1563       C  0.66546040  0.84398704  0.28728537     0.05020
C1564       C  0.70114582  0.85116342  0.30283848    -0.03530
Br1565     Br  0.74942237  0.84905161  0.28915412    -0.03230
H1566       H  0.73045077  0.86592520  0.34137607     0.08930
H1567       H  0.59923478  0.82169263  0.29129831     0.06950
Br1568     Br  0.56945085  0.80396374  0.34506925    -0.03650
C1569       C  0.71416786  0.57962517  0.14309300    -0.10290
C1570       C  0.70045080  0.60195400  0.15945120     0.05910
C1571       C  0.72973549  0.64277498  0.16904205    -0.04060
C1572       C  0.77136912  0.66255541  0.16003363    -0.08500
C1573       C  0.78538462  0.64241060  0.14114772     0.05020
C1574       C  0.75616790  0.59878861  0.13428570    -0.03530
Br1575     Br  0.76906768  0.56365270  0.11101693    -0.03230
H1576       H  0.69182929  0.54742017  0.13653017     0.08930
H1577       H  0.79220285  0.69426990  0.16787096     0.06950
Br1578     Br  0.71412640  0.67342622  0.19412887    -0.03650
C1579       C  0.87249881  0.79035651  0.13111843    -0.10290
C1580       C  0.90282503  0.80483322  0.15193350     0.05910
C1581       C  0.90750716  0.77482810  0.16645385    -0.04060
C1582       C  0.88208214  0.73172706  0.15978894    -0.08500
C1583       C  0.85320198  0.71621016  0.13708496     0.05020
C1584       C  0.84641988  0.74732830  0.12477095    -0.03530
Br1585     Br  0.79765373  0.73852814  0.10573762    -0.03230
H1586       H  0.86642580  0.81279356  0.12118255     0.08930
H1587       H  0.88596646  0.71045260  0.17271561     0.06950
Br1588     Br  0.94939249  0.79008693  0.19477749    -0.03650
C1589       C  0.84155739  0.61468077  0.15837822    -0.10290
C1590       C  0.85841953  0.64953226  0.14037976     0.05910
C1591       C  0.90223583  0.66750507  0.13352048    -0.04060
C1592       C  0.92350131  0.64628651  0.13978822    -0.08500
C1593       C  0.90333722  0.60764714  0.15328384     0.05020
C1594       C  0.86260510  0.59293124  0.16378808    -0.03530
Br1595     Br  0.83407454  0.54372319  0.18622616    -0.03230
H1596       H  0.81106009  0.60251980  0.16785471     0.08930
H1597       H  0.95558758  0.65910289  0.13259005     0.06950
Br1598     Br  0.93447070  0.71764245  0.11195965    -0.03650
C1599       C  0.77524843  0.65996437  0.47241800    -0.10290
C1600       C  0.78857534  0.64035395  0.49142068     0.05910
C1601       C  0.75737540  0.59907694  0.00036708    -0.04060
C1602       C  0.71524097  0.58193735  0.49319277    -0.08500
C1603       C  0.70287136  0.60331660  0.47607619     0.05020
C1604       C  0.73299371  0.64199112  0.46500771    -0.03530
Br1605     Br  0.71755839  0.67215886  0.44048289    -0.03230
H1606       H  0.79731525  0.68967317  0.46316253     0.08930
H1607       H  0.69185150  0.55107617  0.00061657     0.06950
Br1608     Br  0.76767532  0.56186776  0.02136744    -0.03650
C1609       C  0.87145809  0.78677336  0.00044077    -0.10290
C1610       C  0.90500666  0.80198916  0.48187269     0.05910
C1611       C  0.91422592  0.77294454  0.46929333    -0.04060
C1612       C  0.89009964  0.73006551  0.47539348    -0.08500
C1613       C  0.85741388  0.71353669  0.49567715     0.05020
C1614       C  0.84634720  0.74362723  0.00616582    -0.03530
Br1615     Br  0.79319451  0.73224028  0.02108959    -0.03230
H1616       H  0.86212837  0.80840930  0.00870059     0.08930
H1617       H  0.89715995  0.70975659  0.46295760     0.06950
Br1618     Br  0.96018486  0.78942912  0.44388701    -0.03650
C1619       C  0.87069057  0.59170748  0.46703170    -0.10290
C1620       C  0.91027673  0.60800533  0.47932566     0.05910
C1621       C  0.92840762  0.64745276  0.99337915    -0.04060
C1622       C  0.90361372  0.66528301  0.99918509    -0.08500
C1623       C  0.86094198  0.64575049  0.49048812     0.05020
C1624       C  0.84709085  0.61146348  0.47079516    -0.03530
Br1625     Br  0.80130245  0.59199371  0.44478379    -0.03230
H1626       H  0.85838062  0.56368514  0.45380635     0.08930
H1627       H  0.91676039  0.69315229  0.01261848     0.06950
Br1628     Br  0.98361682  0.67534546  0.00981813    -0.03650
C1629       C  0.85061255  0.64635419  0.08139438    -0.10290
C1630       C  0.82654953  0.66066272  0.09580027     0.05910
C1631       C  0.79497467  0.66039357  0.07866844    -0.04060
C1632       C  0.79989806  0.66252652  0.04995493    -0.08500
C1633       C  0.83151097  0.65908172  0.03571178     0.05020
C1634       C  0.85162201  0.64290012  0.05262624    -0.03530
Br1635     Br  0.86630552  0.60059756  0.04292174    -0.03230
H1636       H  0.86476197  0.63167889  0.09215165     0.08930
H1637       H  0.77393631  0.65982034  0.03842787     0.06950
Br1638     Br  0.73723840  0.64287681  0.08858899    -0.03650
C1639       C  0.83438707  0.66437388  0.50305609    -0.03620
C1640       C  0.83048630  0.66730458  0.62854192    -0.03620
C1641       C  0.66207765  0.83573724  0.87938623    -0.03620
C1642       C  0.66330030  0.84851847  0.75544845    -0.03620
N1643       N  0.56175852  0.59628827  0.91460658    -0.07250
N1644       N  0.57691372  0.62812835  0.89758611    -0.59370
N1645       N  0.59535632  0.56679164  0.96867607    -0.06930
N1646       N  0.62899438  0.58404617  0.98478041    -0.61500
N1647       N  0.60426826  0.55680999  0.94422280    -0.06530
N1648       N  0.64395150  0.56685726  0.94315951    -0.59350
N1649       N  0.55383639  0.60745015  0.93891427    -0.06210
N1650       N  0.56317475  0.64705359  0.93890327    -0.61850
C1651       C  0.57698685  0.65930832  0.91290946     0.94930
C1652       C  0.65865230  0.58333015  0.96856513     0.94700
N1653       N  0.98123981  0.99002277  0.51128760    -0.07440
N1654       N  0.97215943  0.97517980  0.53664974    -0.59950
N1655       N  0.97756800  0.56628934  0.97806360    -0.05560
N1656       N  0.97297112  0.59943101  0.97820122    -0.61200
N1657       N  0.94078231  0.53105652  0.97772577    -0.07470
N1658       N  0.91015716  0.53975007  0.97766675    -0.60220
N1659       N  0.51767170  0.52573856  0.51114324    -0.05200
N1660       N  0.53382661  0.53589829  0.53645200    -0.61290
Mn1661     Mn  0.53663922  0.56696745  0.97483521     1.18440
C1662       C  0.50540017  0.50375618  0.55212000     0.97010
C1663       C  0.93091087  0.58264733  0.97811485     0.97670
N1664       N  0.56035696  0.97790138  0.90519440    -0.07490
N1665       N  0.59303455  0.97273665  0.90285176    -0.63790
N1666       N  0.98170719  0.98037556  0.87342923    -0.06290
N1667       N  0.96462383  0.97178758  0.84835603    -0.64470
N1668       N  0.51727301  0.51694430  0.87363752    -0.06990
N1669       N  0.52500223  0.53387230  0.84890305    -0.64060
N1670       N  0.52500958  0.94129096  0.90572264    -0.05890
N1671       N  0.53300870  0.91024167  0.90372301    -0.64750
Mn1672     Mn  0.56128273  0.53732030  0.90892935     1.10660
C1673       C  0.57562770  0.93043849  0.90179831     0.98230
C1674       C  0.99171581  0.50575347  0.83335463     0.98310
N1675       N  0.89499669  0.94894351  0.93942740    -0.07000
N1676       N  0.85543729  0.93965167  0.93973568    -0.62370
N1677       N  0.94716149  0.89830973  0.94647318    -0.06320
N1678       N  0.93958081  0.85925194  0.94716927    -0.59100
N1679       N  0.93738438  0.90911831  0.97035728    -0.07630
N1680       N  0.92285466  0.87737591  0.98762613    -0.61940
N1681       N  0.90389640  0.93711789  0.91562734    -0.06620
N1682       N  0.87028577  0.91919633  0.89941492    -0.59130
Mn1683     Mn  0.93774499  0.96928772  0.97525229     1.20190
Mn1684     Mn  0.96386112  0.93832959  0.90974966     1.10090
Cl1685     Cl  0.99980238  0.50281353  0.94223487    -0.87100
C1686       C  0.84050172  0.92163939  0.91457865     0.95240
C1687       C  0.92496936  0.84657223  0.97303285     0.95030
N1688       N  0.93820659  0.53392479  0.65634137    -0.07250
N1689       N  0.90652272  0.54098334  0.65538324    -0.59370
N1690       N  0.51661619  0.52895729  0.62395142    -0.06930
N1691       N  0.53306861  0.53799742  0.59877585    -0.61500
N1692       N  0.98068771  0.99267369  0.62334886    -0.06530
N1693       N  0.97220192  0.97644281  0.59790043    -0.59350
N1694       N  0.97433444  0.56995345  0.65703626    -0.06210
N1695       N  0.96800153  0.60211366  0.65645017    -0.61850
C1696       C  0.92555035  0.58370129  0.65562700     0.94930
C1697       C  0.50528967  0.50465049  0.58278433     0.94700
N1698       N  0.60224935  0.56205497  0.69159660    -0.07440
N1699       N  0.64088265  0.56871160  0.69215044    -0.59950
N1700       N  0.55100982  0.61371755  0.69808812    -0.05560
N1701       N  0.56002386  0.65334157  0.69877938    -0.61200
N1702       N  0.55956289  0.60365288  0.72214094    -0.07470
N1703       N  0.57521505  0.63653805  0.73946255    -0.60220
N1704       N  0.59390125  0.57176454  0.66736933    -0.05200
N1705       N  0.62706684  0.58554609  0.65097719    -0.61290
Mn1706     Mn  0.53460679  0.57181104  0.66104065     1.18440
C1707       C  0.65574387  0.58269360  0.66663252     0.97010
C1708       C  0.57483912  0.66712440  0.72470288     0.97670
N1709       N  0.93626496  0.91302162  0.66302333    -0.07490
N1710       N  0.92205219  0.88019732  0.64570829    -0.63790
N1711       N  0.90110173  0.94408787  0.71770388    -0.06290
N1712       N  0.86761802  0.92963345  0.73393373    -0.64470
N1713       N  0.89274156  0.95393103  0.69350573    -0.06990
N1714       N  0.85375950  0.94625987  0.69269638    -0.64060
N1715       N  0.94521724  0.90342555  0.68706213    -0.05890
N1716       N  0.93755157  0.86433567  0.68650075    -0.64750
Mn1717     Mn  0.93636096  0.97286370  0.65851177     1.10660
C1718       C  0.92358712  0.85012159  0.66054196     0.98230
C1719       C  0.83861709  0.93173793  0.71806418     0.98310
N1720       N  0.51424398  0.52318119  0.76204756    -0.07000
N1721       N  0.52323594  0.53746332  0.78794571    -0.62370
N1722       N  0.52230123  0.94726011  0.72743455    -0.06320
N1723       N  0.53034969  0.91613140  0.72796132    -0.59100
N1724       N  0.55764026  0.98395832  0.72886448    -0.07630
N1725       N  0.59031417  0.97876529  0.73057487    -0.61940
N1726       N  0.97862176  0.98658961  0.76106161    -0.06620
N1727       N  0.96291550  0.97550954  0.78626883    -0.59130
Mn1728     Mn  0.55876332  0.54380932  0.72670124     1.20190
Mn1729     Mn  0.96114540  0.94464423  0.72384382     1.10090
Cl1730     Cl  0.99761769  0.50833994  0.69256374    -0.87100
C1731       C  0.99069885  0.50778614  0.80282779     0.95240
C1732       C  0.57298197  0.93644801  0.72961965     0.95030
C1733       C  0.57376168  0.73361469  0.73170654    -0.10290
C1734       C  0.59561335  0.71203040  0.73346091     0.05910
C1735       C  0.63753067  0.73413879  0.74254912    -0.03760
C1736       C  0.65754553  0.77745243  0.74796077    -0.08500
C1737       C  0.63690759  0.80081596  0.74584581     0.05020
C1738       C  0.59261663  0.77659672  0.73933347    -0.03530
Br1739     Br  0.55172949  0.79397518  0.74416787    -0.03230
H1740       H  0.54077179  0.71608879  0.72579787     0.08930
H1741       H  0.69024806  0.79314534  0.75370939     0.06950
Br1742     Br  0.66997665  0.70745552  0.74727033    -0.03650
C1743       C  0.61763199  0.92403513  0.76045300    -0.10290
C1744       C  0.59742686  0.91593177  0.73496882     0.05910
C1745       C  0.60367508  0.89147318  0.71496183    -0.04060
C1746       C  0.62754612  0.87297430  0.72157264    -0.08500
C1747       C  0.64297961  0.87558011  0.74872557     0.05020
C1748       C  0.64104046  0.90550428  0.76744056    -0.03530
Br1749     Br  0.67161807  0.92846339  0.80171061    -0.03230
H1750       H  0.61534738  0.94550821  0.77515905     0.08930
H1751       H  0.63085734  0.85344436  0.70594857     0.06950
Br1752     Br  0.57958530  0.88193479  0.67865207    -0.03650
C1753       C  0.76286174  0.88079746  0.70927924    -0.10290
C1754       C  0.79394674  0.91396783  0.72544678     0.05910
C1755       C  0.78160164  0.93062778  0.74739649    -0.04060
C1756       C  0.73893868  0.91153751  0.75438721    -0.08500
C1757       C  0.70785136  0.87310679  0.74163262     0.05020
C1758       C  0.72013352  0.86078348  0.71660600    -0.03530
Br1759     Br  0.68218056  0.82108408  0.68916137    -0.03230
H1760       H  0.77198926  0.87005524  0.69086677     0.08930
H1761       H  0.73119458  0.92449186  0.77198679     0.06950
Br1762     Br  0.82204822  0.97794216  0.76940146    -0.03650
C1763       C  0.61782026  0.75527233  0.86903326    -0.10290
C1764       C  0.63896251  0.78906962  0.88861687     0.05910
C1765       C  0.64043008  0.77791254  0.91655102    -0.04060
C1766       C  0.61960776  0.73551503  0.92383768    -0.08500
C1767       C  0.59719580  0.70317490  0.90422253     0.05020
C1768       C  0.59631649  0.71329491  0.87663593    -0.03530
Br1769     Br  0.56476622  0.67155182  0.84825107    -0.03230
H1770       H  0.61785306  0.76014062  0.84722650     0.08930
H1771       H  0.62081227  0.72779399  0.94517680     0.06950
Br1772     Br  0.66580626  0.81759545  0.94704303    -0.03650
C1773       C  0.65704617  0.90181245  0.87997561    -0.10290
C1774       C  0.63963607  0.86012498  0.88977284     0.05910
C1775       C  0.60089514  0.84367468  0.90519019    -0.04060
C1776       C  0.58249242  0.86840029  0.90954479    -0.08500
C1777       C  0.59980793  0.90869601  0.89886548     0.05020
C1778       C  0.63819375  0.92595456  0.88451994    -0.03530
Br1779     Br  0.66553698  0.98104693  0.86866395    -0.03230
H1780       H  0.68574532  0.91564006  0.86785891     0.08930
H1781       H  0.55286594  0.85515770  0.92062162     0.06950
Br1782     Br  0.56357155  0.78696155  0.91753774    -0.03650
C1783       C  0.77741628  0.86110516  0.89294903    -0.10290
C1784       C  0.79548382  0.90016446  0.90687765     0.05910
C1785       C  0.76968335  0.91642159  0.91457461    -0.04060
C1786       C  0.72712652  0.89465970  0.90707806    -0.08500
C1787       C  0.70865345  0.85670850  0.89082887     0.05020
C1788       C  0.73476243  0.83882240  0.88557316    -0.03530
Br1789     Br  0.71723181  0.78625817  0.86589839    -0.03230
H1790       H  0.79671769  0.84751172  0.88784331     0.08930
H1791       H  0.70897231  0.90813921  0.91472519     0.06950
Br1792     Br  0.79101709  0.96950310  0.93416415    -0.03650
C1793       C  0.70037264  0.85365197  0.83159143    -0.10290
C1794       C  0.66259786  0.83859505  0.84681237     0.05910
C1795       C  0.62558893  0.82655995  0.83084740    -0.04060
C1796       C  0.62772825  0.82958232  0.80215532    -0.08500
C1797       C  0.66546040  0.84398705  0.78728537     0.05020
C1798       C  0.70114583  0.85116347  0.80283847    -0.03530
Br1799     Br  0.74942242  0.84905174  0.78915412    -0.03230
H1800       H  0.73045076  0.86592525  0.84137608     0.08930
H1801       H  0.59923476  0.82169256  0.79129830     0.06950
Br1802     Br  0.56945082  0.80396366  0.84506924    -0.03650
C1803       C  0.71416781  0.57962518  0.64309300    -0.10290
C1804       C  0.70045076  0.60195401  0.65945120     0.05910
C1805       C  0.72973546  0.64277498  0.66904208    -0.04060
C1806       C  0.77136909  0.66255539  0.66003367    -0.08500
C1807       C  0.78538459  0.64241060  0.64114774     0.05020
C1808       C  0.75616786  0.59878861  0.63428571    -0.03530
Br1809     Br  0.76906763  0.56365270  0.61101693    -0.03230
H1810       H  0.69182924  0.54742019  0.63653016     0.08930
H1811       H  0.79220283  0.69426987  0.66787102     0.06950
Br1812     Br  0.71412637  0.67342622  0.69412890    -0.03650
C1813       C  0.87249871  0.79035648  0.63111848    -0.10290
C1814       C  0.90282503  0.80483322  0.65193349     0.05910
C1815       C  0.90750722  0.77482813  0.66645381    -0.04060
C1816       C  0.88208220  0.73172708  0.65978892    -0.08500
C1817       C  0.85320195  0.71621016  0.63708499     0.05020
C1818       C  0.84641976  0.74732826  0.62477103    -0.03530
Br1819     Br  0.79765343  0.73852802  0.60573791    -0.03230
H1820       H  0.86642563  0.81279351  0.62118263     0.08930
H1821       H  0.88596658  0.71045265  0.67271557     0.06950
Br1822     Br  0.94939266  0.79008701  0.69477738    -0.03650
C1823       C  0.84155735  0.61468076  0.65837824    -0.10290
C1824       C  0.85841950  0.64953224  0.64037977     0.05910
C1825       C  0.90223579  0.66750504  0.63352048    -0.04060
C1826       C  0.92350127  0.64628649  0.63978822    -0.08500
C1827       C  0.90333718  0.60764712  0.65328385     0.05020
C1828       C  0.86260506  0.59293123  0.66378809    -0.03530
Br1829     Br  0.83407450  0.54372317  0.68622617    -0.03230
H1830       H  0.81106006  0.60251979  0.66785472     0.08930
H1831       H  0.95558753  0.65910285  0.63259004     0.06950
Br1832     Br  0.93447066  0.71764240  0.61195963    -0.03650
C1833       C  0.77524841  0.65996433  0.97241799    -0.10290
C1834       C  0.78857533  0.64035390  0.99142066     0.05910
C1835       C  0.75737540  0.59907701  0.50036712    -0.04060
C1836       C  0.71524096  0.58193728  0.99319273    -0.08500
C1837       C  0.70287134  0.60331654  0.97607618     0.05020
C1838       C  0.73299368  0.64199107  0.96500771    -0.03530
Br1839     Br  0.71755835  0.67215883  0.94048291    -0.03230
H1840       H  0.79731522  0.68967314  0.96316253     0.08930
H1841       H  0.69185150  0.55107625  0.50061662     0.06950
Br1842     Br  0.76767530  0.56186783  0.52136750    -0.03650
C1843       C  0.87145812  0.78677341  0.50044077    -0.10290
C1844       C  0.90500663  0.80198911  0.98187268     0.05910
C1845       C  0.91422588  0.77294450  0.96929332    -0.04060
C1846       C  0.89009961  0.73006547  0.97539347    -0.08500
C1847       C  0.85741386  0.71353664  0.99567714     0.05020
C1848       C  0.84634721  0.74362728  0.50616582    -0.03530
Br1849     Br  0.79319451  0.73224035  0.52108954    -0.03230
H1850       H  0.86212839  0.80840936  0.50870059     0.08930
H1851       H  0.89715992  0.70975656  0.96295758     0.06950
Br1852     Br  0.96018482  0.78942909  0.94388699    -0.03650
C1853       C  0.87069057  0.59170745  0.96703168    -0.10290
C1854       C  0.91027672  0.60800529  0.97932564     0.05910
C1855       C  0.92840762  0.64745280  0.49337917    -0.04060
C1856       C  0.90361373  0.66528305  0.49918511    -0.08500
C1857       C  0.86094197  0.64575045  0.99048810     0.05020
C1858       C  0.84709085  0.61146345  0.97079514    -0.03530
Br1859     Br  0.80130247  0.59199370  0.94478375    -0.03230
H1860       H  0.85838063  0.56368511  0.95380632     0.08930
H1861       H  0.91676041  0.69315233  0.51261850     0.06950
Br1862     Br  0.98361683  0.67534549  0.50981815    -0.03650
C1863       C  0.85061249  0.64635416  0.58139440    -0.10290
C1864       C  0.82654951  0.66066274  0.59580030     0.05910
C1865       C  0.79497471  0.66039368  0.57866846    -0.04060
C1866       C  0.79989813  0.66252666  0.54995495    -0.08500
C1867       C  0.83151100  0.65908179  0.53571180     0.05020
C1868       C  0.85162199  0.64290013  0.55262626    -0.03530
Br1869     Br  0.86630551  0.60059759  0.54292175    -0.03230
H1870       H  0.86476185  0.63167879  0.59215168     0.08930
H1871       H  0.77393639  0.65982049  0.53842788     0.06950
Br1872     Br  0.73723839  0.64287678  0.58858896    -0.03650
loop_ 
_geom_bond_atom_site_label_1 
_geom_bond_atom_site_label_2 
_geom_bond_distance 
_geom_bond_site_symmetry_2 
_ccdc_geom_bond_type 
C1          C229   1.590       .  S
C1          C430   1.557   1_554  S
C1          C443   1.607   1_554  S
C1          C453   1.567   1_554  S
C2          C169   1.559       .  S
C2          C179   1.596       .  S
C2          C186   1.593       .  S
C2          C226   1.592       .  S
C3          C126   1.554       .  S
C3          C136   1.573       .  S
C3          C149   1.581       .  S
C3          C156   1.579       .  S
C4           C99   1.572       .  S
C4          C109   1.564       .  S
C4          C119   1.567       .  S
C4          C159   1.559       .  S
N5            N6   1.316       .  A
N5           N11   1.314       .  A
N5          Mn34   2.174       .  S
N6           C13   1.350       .  A
N7            N9   1.317       .  A
N7            N8   1.319       .  A
N7          Mn23   2.188       .  S
N8           C14   1.351       .  A
N9           N10   1.316       .  A
N9          Mn34   2.184       .  S
N10          C14   1.345       .  A
N11          N12   1.317       .  A
N11         Mn23   2.185       .  S
N12          C13   1.349       .  A
C13         C129   1.463       .  S
C14         C199   1.452       .  S
N15          N16   1.323       .  A
N15        N1425   1.317       .  A
N15        Mn279   2.221   1_554  S
N16        C1428   1.354       .  A
N17          N18   1.316       .  A
N17          N19   1.314       .  A
N17        Mn959   2.172       .  S
N18          C25   1.346       .  A
N19          N20   1.323       .  A
N19        Mn513   2.220   1_545  S
N20          C25   1.359       .  A
N21          N22   1.325       .  A
N21        N1419   1.317   1_445  A
N21        Mn257   2.212   1_554  S
N22          C24   1.354       .  A
Mn23        N953   2.172   1_455  S
Mn23        N255   2.212       .  S
Mn23       Cl983   2.548   1_455  S
C24        N1420   1.354   1_445  A
C24          C59   1.481       .  S
C25         C216   1.476       .  S
N26          N27   1.317       .  A
N26          N32   1.313       .  A
N26        Mn502   2.174       .  S
N27          C35   1.348       .  A
N28          N29   1.326       .  A
N28        N1434   1.316       .  A
N28         Mn46   2.232       .  S
N29         C504   1.358       .  A
N30          N31   1.322       .  A
N30        N1432   1.316   1_445  A
N30         Mn34   2.204       .  S
N31         C972   1.352   1_455  A
N32          N33   1.321       .  A
N32        Mn982   2.210   1_455  S
N33          C35   1.357       .  A
Mn34        N494   2.174   1_545  S
Mn34       Cl983   2.537   1_455  S
C35         C139   1.477       .  S
C36         N497   1.358   1_545  A
C36         N967   1.352       .  A
C36          C93   1.481       .  S
N37          N38   1.319       .  A
N37          N43   1.317       .  A
N37         Mn45   2.198       .  S
N38          C48   1.350       .  A
N39          N40   1.319       .  A
N39          N41   1.318       .  A
N39         Mn46   2.209       .  S
N40          C49   1.352       .  A
N41          N42   1.323       .  A
N41         Mn45   2.217       .  S
N42          C49   1.357       .  A
N43          N44   1.321       .  A
N43         Mn46   2.207       .  S
N44          C48   1.355       .  A
Mn45        N249   2.221       .  S
Mn45        N487   2.220       .  S
Mn45       Cl515   2.541       .  S
Mn46        N968   2.210       .  S
Mn46       Cl515   2.551       .  S
Cl47       Mn959   2.548       .  S
Cl47       Mn970   2.537       .  S
Cl47       Mn513   2.541   1_545  S
Cl47       Mn514   2.551   1_545  S
C48         C146   1.477       .  S
C49         C206   1.488       .  S
N50          N51   1.323       .  A
N50          N56   1.316       .  A
N50        Mn547   2.220   1_545  S
N51          C58   1.356       .  A
N52          N53   1.326       .  A
N52        N1458   1.317   1_445  A
N52         Mn68   2.227       .  S
N53          C59   1.356       .  A
N54          N55   1.322       .  A
N54        N1456   1.317       .  A
N54         Mn79   2.209       .  S
N55        C1463   1.352       .  A
N56          N57   1.321       .  A
N56       Mn1004   2.201       .  S
N57          C58   1.353       .  A
C58         C189   1.486       .  S
C59        N1459   1.352   1_445  A
N60          N66   1.317       .  A
N60          N61   1.318       .  A
N60         Mn90   2.192       .  S
N61          C69   1.347       .  A
N62          N63   1.321       .  A
N62          N64   1.318       .  A
N62         Mn68   2.210       .  S
N63          C70   1.351       .  A
N64          N65   1.322       .  A
N64         Mn90   2.206       .  S
N65          C70   1.354       .  A
N66          N67   1.322       .  A
N66         Mn68   2.214       .  S
N67          C69   1.356       .  A
Mn68        N992   2.201   1_455  S
Mn68      Cl1028   2.554   1_455  S
C69         C166   1.467       .  S
C70          C96   1.476       .  S
N71          N72   1.322       .  A
N71          N77   1.315       .  A
N71         Mn79   2.219       .  S
N72          C80   1.360       .  A
N73          N75   1.318       .  A
N73          N74   1.325       .  A
N73         Mn91   2.229       .  S
N74          C81   1.358       .  A
N75          N76   1.318       .  A
N75         Mn79   2.189       .  S
N76          C81   1.347       .  A
N77          N78   1.318       .  A
N77         Mn91   2.188       .  S
N78          C80   1.348       .  A
Mn79        N518   2.220       .  S
Mn79       Cl560   2.546       .  S
C80         C176   1.487       .  S
C81         C116   1.474       .  S
N82          N83   1.323       .  A
N82        N1492   1.318   1_445  A
N82         Mn90   2.219       .  S
N83        C1029   1.354   1_455  A
N84          N85   1.324       .  A
N84          N86   1.315       .  A
N84       Mn1027   2.218   1_455  S
N85          C94   1.356       .  A
N86          N87   1.318       .  A
N86        Mn558   2.189       .  S
N87          C94   1.349       .  A
N88          N89   1.325       .  A
N88        N1486   1.318       .  A
N88         Mn91   2.215       .  S
N89         C561   1.353       .  A
Mn90        N554   2.189   1_545  S
Mn90      Cl1028   2.545   1_455  S
Mn91       N1020   2.218       .  S
Mn91       Cl560   2.551       .  S
Cl92      Mn1004   2.554       .  S
Cl92       Mn547   2.546   1_545  S
Cl92      Mn1026   2.545       .  S
Cl92       Mn559   2.551   1_545  S
C93        N1019   1.354       .  A
C93         N557   1.353   1_545  A
C94         C106   1.471       .  S
C95          C96   1.397       .  A
C95         C100   1.406       .  A
C95         H102   1.084       .  S
C96          C97   1.400       .  A
C97          C98   1.393       .  A
C97        Br104   1.916       .  S
C98          C99   1.417       .  A
C98         H103   1.074       .  S
C99         C100   1.440       .  A
C100       Br101   1.928       .  S
C105        C106   1.391       .  A
C105        C110   1.395       .  A
C105        H112   1.085       .  S
C106        C107   1.402       .  A
C107        C108   1.405       .  A
C107       Br114   1.917       .  S
C108        C109   1.417       .  A
C108        H113   1.079       .  S
C109        C110   1.438       .  A
C110       Br111   1.930       .  S
C115        C116   1.400       .  A
C115        C120   1.404       .  A
C115        H122   1.084       .  S
C116        C117   1.398       .  A
C117        C118   1.399       .  A
C117       Br124   1.918       .  S
C118        C119   1.419       .  A
C118        H123   1.071       .  S
C119        C120   1.431       .  A
C120       Br121   1.926       .  S
C125        C126   1.421       .  A
C125        C130   1.387       .  A
C125        H132   1.073       .  S
C126        C127   1.430       .  A
C127        C128   1.396       .  A
C127       Br134   1.926       .  S
C128        C129   1.398       .  A
C128        H133   1.084       .  S
C129        C130   1.398       .  A
C130       Br131   1.924       .  S
C135        C136   1.420       .  A
C135        C140   1.394       .  A
C135        H142   1.084       .  S
C136        C137   1.443       .  A
C137        C138   1.398       .  A
C137       Br144   1.929       .  S
C138        C139   1.393       .  A
C138        H143   1.085       .  S
C139        C140   1.405       .  A
C140       Br141   1.921       .  S
C145        C146   1.396       .  A
C145        C150   1.399       .  A
C145        H152   1.084       .  S
C146        C147   1.403       .  A
C147        C148   1.397       .  A
C147       Br154   1.921       .  S
C148        C149   1.421       .  A
C148        H153   1.076       .  S
C149        C150   1.436       .  A
C150       Br151   1.927       .  S
C155        C156   1.415       .  A
C155        C160   1.391       .  A
C155        H162   1.071       .  S
C156        C157   1.429       .  A
C157        C158   1.392       .  A
C157       Br164   1.922       .  S
C158        C159   1.408       .  A
C158        H163   1.076       .  S
C159        C160   1.423       .  A
C160       Br161   1.932       .  S
C165        C166   1.394       .  A
C165        C170   1.402       .  A
C165        H172   1.084       .  S
C166        C167   1.400       .  A
C167        C168   1.393       .  A
C167       Br174   1.913       .  S
C168        C169   1.415       .  A
C168        H173   1.080       .  S
C169        C170   1.437       .  A
C170       Br171   1.927       .  S
C175        C176   1.391       .  A
C175        C180   1.399       .  A
C175        H182   1.084       .  S
C176        C177   1.407       .  A
C177        C178   1.401       .  A
C177       Br184   1.923       .  S
C178        C179   1.427       .  A
C178        H183   1.080       .  S
C179        C180   1.435       .  A
C180       Br181   1.901       .  S
C185        C186   1.421       .  A
C185        C190   1.402       .  A
C185        H192   1.078       .  S
C186        C187   1.439       .  A
C187        C188   1.401       .  A
C187       Br194   1.933       .  S
C188        C189   1.399       .  A
C188        H193   1.084       .  S
C189        C190   1.406       .  A
C190       Br191   1.922       .  S
C195        C196   1.418       .  A
C195        C200   1.394       .  A
C195        H202   1.080       .  S
C196        C235   1.557       .  S
C196        C431   1.435       .  A
C197        C430   1.435   1_554  A
C197        C432   1.391   1_554  A
C197       Br204   1.913       .  S
C198        C199   1.386       .  A
C198        C431   1.391       .  A
C198        H437   1.085       .  S
C199        C200   1.400       .  A
C200       Br201   1.921       .  S
H203        C432   1.085   1_554  S
C205        C210   1.405       .  A
C205        C440   1.395   1_554  A
C205        H212   1.084       .  S
C206        C207   1.402       .  A
C206        C439   1.395       .  A
C207        C208   1.398       .  A
C207       Br214   1.922       .  S
C208        C209   1.429       .  A
C208        H213   1.078       .  S
C209        C235   1.607       .  S
C209        C444   1.444       .  A
C210        C443   1.444   1_554  A
C210       Br211   1.921       .  S
C215        C216   1.397       .  A
C215        C220   1.400       .  A
C215        H222   1.084       .  S
C216        C451   1.410       .  A
C217        C218   1.396       .  A
C217        C450   1.410       .  A
C217       Br224   1.922   1_556  S
C218        C453   1.420       .  A
C218        H223   1.084   1_556  S
C219        C235   1.567       .  S
C219        C220   1.433       .  A
C219        C452   1.420       .  A
C220       Br221   1.926       .  S
C225        C226   1.414       .  A
C225        C230   1.395       .  A
C225        H232   1.069       .  S
C226        C227   1.432       .  A
C227        C228   1.396       .  A
C227       Br234   1.944       .  S
C228        C229   1.408       .  A
C228        H233   1.072       .  S
C229        C230   1.436       .  A
C230       Br231   1.940       .  S
C235        C463   1.590       .  S
C236        C403   1.559       .  S
C236        C413   1.596       .  S
C236        C420   1.593       .  S
C236        C460   1.592       .  S
C237        C360   1.554       .  S
C237        C370   1.573       .  S
C237        C383   1.581       .  S
C237        C390   1.579       .  S
C238        C333   1.572       .  S
C238        C343   1.564       .  S
C238        C353   1.567       .  S
C238        C393   1.559       .  S
N239        N240   1.316       .  A
N239        N245   1.314       .  A
N239       Mn268   2.174       .  S
N240        C247   1.350       .  A
N241        N243   1.317       .  A
N241        N242   1.319       .  A
N241       Mn257   2.188       .  S
N242        C248   1.351       .  A
N243        N244   1.316       .  A
N243       Mn268   2.184       .  S
N244        C248   1.345       .  A
N245        N246   1.317       .  A
N245       Mn257   2.185       .  S
N246        C247   1.349       .  A
C247        C363   1.463       .  S
C248        C433   1.452       .  S
N249       N1659   1.317       .  A
N249        N250   1.323       .  A
N250       C1662   1.354       .  A
N251        N252   1.316       .  A
N251        N253   1.314       .  A
N251      Mn1193   2.172       .  S
N252        C259   1.346       .  A
N253        N254   1.323       .  A
N253       Mn747   2.220   1_545  S
N254        C259   1.359       .  A
N255       N1653   1.317   1_445  A
N255        N256   1.325       .  A
N256        C258   1.354       .  A
Mn257      N1187   2.172   1_455  S
Mn257     Cl1217   2.548   1_455  S
C258       N1654   1.354   1_445  A
C258        C293   1.481       .  S
C259        C450   1.476       .  S
N260        N261   1.317       .  A
N260        N266   1.313       .  A
N260       Mn736   2.174       .  S
N261        C269   1.348       .  A
N262       N1668   1.316       .  A
N262        N263   1.326       .  A
N262       Mn280   2.232       .  S
N263        C738   1.358       .  A
N264       N1666   1.316   1_445  A
N264        N265   1.322       .  A
N264       Mn268   2.204       .  S
N265       C1206   1.352   1_455  A
N266        N267   1.321       .  A
N266      Mn1216   2.210   1_455  S
N267        C269   1.357       .  A
Mn268       N728   2.174   1_545  S
Mn268     Cl1217   2.537   1_455  S
C269        C373   1.477       .  S
C270        N731   1.358   1_545  A
C270       N1201   1.352       .  A
C270        C327   1.481       .  S
N271        N272   1.319       .  A
N271        N277   1.317       .  A
N271       Mn279   2.198       .  S
N272        C282   1.350       .  A
N273        N274   1.319       .  A
N273        N275   1.318       .  A
N273       Mn280   2.209       .  S
N274        C283   1.352       .  A
N275        N276   1.323       .  A
N275       Mn279   2.217       .  S
N276        C283   1.357       .  A
N277        N278   1.321       .  A
N277       Mn280   2.207       .  S
N278        C282   1.355       .  A
Mn279       N721   2.220       .  S
Mn279      Cl749   2.541       .  S
Mn280      N1202   2.210       .  S
Mn280      Cl749   2.551       .  S
Cl281     Mn1193   2.548       .  S
Cl281     Mn1204   2.537       .  S
Cl281      Mn747   2.541   1_545  S
Cl281      Mn748   2.551   1_545  S
C282        C380   1.477       .  S
C283        C440   1.488       .  S
N284        N285   1.323       .  A
N284        N290   1.316       .  A
N284       Mn781   2.220   1_545  S
N285        C292   1.356       .  A
N286       N1692   1.317   1_445  A
N286        N287   1.326       .  A
N286       Mn302   2.227       .  S
N287        C293   1.356       .  A
N288       N1690   1.317       .  A
N288        N289   1.322       .  A
N288       Mn313   2.209       .  S
N289       C1697   1.352       .  A
N290        N291   1.321       .  A
N290      Mn1238   2.201       .  S
N291        C292   1.353       .  A
C292        C423   1.486       .  S
C293       N1693   1.352   1_445  A
N294        N300   1.317       .  A
N294        N295   1.318       .  A
N294       Mn324   2.192       .  S
N295        C303   1.347       .  A
N296        N297   1.321       .  A
N296        N298   1.318       .  A
N296       Mn302   2.210       .  S
N297        C304   1.351       .  A
N298        N299   1.322       .  A
N298       Mn324   2.206       .  S
N299        C304   1.354       .  A
N300        N301   1.322       .  A
N300       Mn302   2.214       .  S
N301        C303   1.356       .  A
Mn302      N1226   2.201   1_455  S
Mn302     Cl1262   2.554   1_455  S
C303        C400   1.467       .  S
C304        C330   1.476       .  S
N305        N306   1.322       .  A
N305        N311   1.315       .  A
N305       Mn313   2.219       .  S
N306        C314   1.360       .  A
N307        N309   1.318       .  A
N307        N308   1.325       .  A
N307       Mn325   2.229       .  S
N308        C315   1.358       .  A
N309        N310   1.318       .  A
N309       Mn313   2.189       .  S
N310        C315   1.347       .  A
N311        N312   1.318       .  A
N311       Mn325   2.188       .  S
N312        C314   1.348       .  A
Mn313       N752   2.220       .  S
Mn313      Cl794   2.546       .  S
C314        C410   1.487       .  S
C315        C350   1.474       .  S
N316        N317   1.323       .  A
N316       N1726   1.318   1_445  A
N316       Mn324   2.219       .  S
N317       C1263   1.354   1_455  A
N318        N319   1.324       .  A
N318        N320   1.315       .  A
N318      Mn1261   2.218   1_455  S
N319        C328   1.356       .  A
N320        N321   1.318       .  A
N320       Mn792   2.189       .  S
N321        C328   1.349       .  A
N322       N1720   1.318       .  A
N322        N323   1.325       .  A
N322       Mn325   2.215       .  S
N323        C795   1.353       .  A
Mn324       N788   2.189   1_545  S
Mn324     Cl1262   2.545   1_455  S
Mn325      N1254   2.218       .  S
Mn325      Cl794   2.551       .  S
Cl326     Mn1238   2.554       .  S
Cl326      Mn781   2.546   1_545  S
Cl326     Mn1260   2.545       .  S
Cl326      Mn793   2.551   1_545  S
C327       N1253   1.354       .  A
C327        N791   1.353   1_545  A
C328        C340   1.471       .  S
C329        C330   1.397       .  A
C329        C334   1.406       .  A
C329        H336   1.084       .  S
C330        C331   1.400       .  A
C331        C332   1.393       .  A
C331       Br338   1.916       .  S
C332        C333   1.417       .  A
C332        H337   1.074       .  S
C333        C334   1.440       .  A
C334       Br335   1.928       .  S
C339        C340   1.391       .  A
C339        C344   1.395       .  A
C339        H346   1.085       .  S
C340        C341   1.402       .  A
C341        C342   1.405       .  A
C341       Br348   1.917       .  S
C342        C343   1.417       .  A
C342        H347   1.079       .  S
C343        C344   1.438       .  A
C344       Br345   1.930       .  S
C349        C350   1.400       .  A
C349        C354   1.404       .  A
C349        H356   1.084       .  S
C350        C351   1.398       .  A
C351        C352   1.399       .  A
C351       Br358   1.918       .  S
C352        C353   1.419       .  A
C352        H357   1.071       .  S
C353        C354   1.431       .  A
C354       Br355   1.926       .  S
C359        C360   1.421       .  A
C359        C364   1.387       .  A
C359        H366   1.073       .  S
C360        C361   1.430       .  A
C361        C362   1.396       .  A
C361       Br368   1.926       .  S
C362        C363   1.398       .  A
C362        H367   1.084       .  S
C363        C364   1.398       .  A
C364       Br365   1.924       .  S
C369        C370   1.420       .  A
C369        C374   1.394       .  A
C369        H376   1.084       .  S
C370        C371   1.443       .  A
C371        C372   1.398       .  A
C371       Br378   1.929       .  S
C372        C373   1.393       .  A
C372        H377   1.085       .  S
C373        C374   1.405       .  A
C374       Br375   1.921       .  S
C379        C380   1.396       .  A
C379        C384   1.399       .  A
C379        H386   1.084       .  S
C380        C381   1.403       .  A
C381        C382   1.397       .  A
C381       Br388   1.921       .  S
C382        C383   1.421       .  A
C382        H387   1.076       .  S
C383        C384   1.436       .  A
C384       Br385   1.927       .  S
C389        C390   1.415       .  A
C389        C394   1.391       .  A
C389        H396   1.071       .  S
C390        C391   1.429       .  A
C391        C392   1.392       .  A
C391       Br398   1.922       .  S
C392        C393   1.408       .  A
C392        H397   1.076       .  S
C393        C394   1.423       .  A
C394       Br395   1.932       .  S
C399        C400   1.394       .  A
C399        C404   1.402       .  A
C399        H406   1.084       .  S
C400        C401   1.400       .  A
C401        C402   1.393       .  A
C401       Br408   1.913       .  S
C402        C403   1.415       .  A
C402        H407   1.080       .  S
C403        C404   1.437       .  A
C404       Br405   1.927       .  S
C409        C410   1.391       .  A
C409        C414   1.399       .  A
C409        H416   1.084       .  S
C410        C411   1.407       .  A
C411        C412   1.401       .  A
C411       Br418   1.923       .  S
C412        C413   1.427       .  A
C412        H417   1.080       .  S
C413        C414   1.435       .  A
C414       Br415   1.901       .  S
C419        C420   1.421       .  A
C419        C424   1.402       .  A
C419        H426   1.078       .  S
C420        C421   1.439       .  A
C421        C422   1.401       .  A
C421       Br428   1.933       .  S
C422        C423   1.399       .  A
C422        H427   1.084       .  S
C423        C424   1.406       .  A
C424       Br425   1.922       .  S
C429        C430   1.418       .  A
C429        C434   1.394       .  A
C429        H436   1.080       .  S
C431       Br438   1.913       .  S
C432        C433   1.386       .  A
C433        C434   1.400       .  A
C434       Br435   1.921       .  S
C439        C444   1.405       .  A
C439        H446   1.084       .  S
C440        C441   1.402       .  A
C441        C442   1.398       .  A
C441       Br448   1.922       .  S
C442        C443   1.429       .  A
C442        H447   1.078       .  S
C444       Br445   1.921       .  S
C449        C450   1.397       .  A
C449        C454   1.400       .  A
C449        H456   1.084       .  S
C451        C452   1.396       .  A
C451       Br458   1.922       .  S
C452        H457   1.084       .  S
C453        C454   1.433       .  A
C454       Br455   1.926       .  S
C459        C460   1.414       .  A
C459        C464   1.395       .  A
C459        H466   1.069       .  S
C460        C461   1.432       .  A
C461        C462   1.396       .  A
C461       Br468   1.944       .  S
C462        C463   1.408       .  A
C462        H467   1.072       .  S
C463        C464   1.436       .  A
C464       Br465   1.940       .  S
C469        C898   1.557   1_554  S
C469        C911   1.607   1_554  S
C469        C921   1.567   1_554  S
C469        C697   1.590       .  S
C470        C637   1.559       .  S
C470        C647   1.596       .  S
C470        C654   1.593       .  S
C470        C694   1.592       .  S
C471        C594   1.553       .  S
C471        C604   1.573       .  S
C471        C617   1.581       .  S
C471        C624   1.579       .  S
C472        C567   1.572       .  S
C472        C577   1.564       .  S
C472        C587   1.567       .  S
C472        C627   1.559       .  S
N473        N474   1.316       .  A
N473        N479   1.314       .  A
N473       Mn502   2.174       .  S
N474        C481   1.350       .  A
N475        N477   1.317       .  A
N475        N476   1.319       .  A
N475       Mn491   2.188       .  S
N476        C482   1.351       .  A
N477        N478   1.316       .  A
N477       Mn502   2.184       .  S
N478        C482   1.345       .  A
N479        N480   1.317       .  A
N479       Mn491   2.185       .  S
N480        C481   1.349       .  A
C481        C597   1.463       .  S
C482        C667   1.452       .  S
N483        N957   1.317   1_565  A
N483        N484   1.323       .  A
N483       Mn747   2.221   1_554  S
N484        C960   1.354   1_565  A
N485        N486   1.316       .  A
N485        N487   1.314       .  A
N485      Mn1427   2.172       .  S
N486        C493   1.346       .  A
N487        N488   1.323       .  A
N488        C493   1.359       .  A
N489        N951   1.317   1_455  A
N489        N490   1.325       .  A
N489       Mn725   2.212   1_554  S
N490        C492   1.354       .  A
Mn491      N1421   2.172   1_455  S
Mn491       N723   2.212       .  S
Mn491     Cl1451   2.548   1_455  S
C492        N952   1.354   1_455  A
C492        C527   1.481       .  S
C493        C684   1.476       .  S
N494        N495   1.317       .  A
N494        N500   1.313       .  A
N495        C503   1.348       .  A
N496        N966   1.316   1_565  A
N496        N497   1.326       .  A
N496       Mn514   2.232       .  S
N498        N964   1.316   1_455  A
N498        N499   1.322       .  A
N498       Mn502   2.204       .  S
N499       C1440   1.352   1_455  A
N500        N501   1.321       .  A
N500      Mn1450   2.210   1_455  S
N501        C503   1.357       .  A
Mn502     Cl1451   2.537   1_455  S
C503        C607   1.477       .  S
C504       N1435   1.352       .  A
C504        C561   1.481       .  S
N505        N506   1.319       .  A
N505        N511   1.317       .  A
N505       Mn513   2.198       .  S
N506        C516   1.350       .  A
N507        N508   1.319       .  A
N507        N509   1.318       .  A
N507       Mn514   2.209       .  S
N508        C517   1.352       .  A
N509        N510   1.323       .  A
N509       Mn513   2.217       .  S
N510        C517   1.357       .  A
N511        N512   1.321       .  A
N511       Mn514   2.207       .  S
N512        C516   1.355       .  A
Mn513       N717   2.221       .  S
Mn514      N1436   2.210       .  S
Cl515     Mn1427   2.548       .  S
Cl515     Mn1438   2.537       .  S
C516        C614   1.477       .  S
C517        C674   1.488       .  S
N518        N519   1.323       .  A
N518        N524   1.316       .  A
N519        C526   1.356       .  A
N520        N990   1.317   1_455  A
N520        N521   1.326       .  A
N520       Mn536   2.227       .  S
N521        C527   1.356       .  A
N522        N988   1.317   1_565  A
N522        N523   1.322       .  A
N522       Mn547   2.209       .  S
N523        C995   1.352   1_565  A
N524        N525   1.321       .  A
N524      Mn1472   2.201       .  S
N525        C526   1.353       .  A
C526        C657   1.486       .  S
C527        N991   1.352   1_455  A
N528        N534   1.317       .  A
N528        N529   1.318       .  A
N528       Mn558   2.192       .  S
N529        C537   1.347       .  A
N530        N531   1.321       .  A
N530        N532   1.318       .  A
N530       Mn536   2.210       .  S
N531        C538   1.351       .  A
N532        N533   1.322       .  A
N532       Mn558   2.206       .  S
N533        C538   1.354       .  A
N534        N535   1.322       .  A
N534       Mn536   2.214       .  S
N535        C537   1.356       .  A
Mn536      N1460   2.201   1_455  S
Mn536     Cl1496   2.554   1_455  S
C537        C634   1.467       .  S
C538        C564   1.476       .  S
N539        N540   1.322       .  A
N539        N545   1.315       .  A
N539       Mn547   2.219       .  S
N540        C548   1.360       .  A
N541        N543   1.318       .  A
N541        N542   1.325       .  A
N541       Mn559   2.229       .  S
N542        C549   1.358       .  A
N543        N544   1.318       .  A
N543       Mn547   2.189       .  S
N544        C549   1.347       .  A
N545        N546   1.318       .  A
N545       Mn559   2.188       .  S
N546        C548   1.348       .  A
C548        C644   1.487       .  S
C549        C584   1.474       .  S
N550        N551   1.323       .  A
N550       N1024   1.318   1_455  A
N550       Mn558   2.219       .  S
N551       C1497   1.354   1_455  A
N552        N553   1.324       .  A
N552        N554   1.315       .  A
N552      Mn1495   2.218   1_455  S
N553        C562   1.356       .  A
N554        N555   1.318       .  A
N555        C562   1.349       .  A
N556       N1018   1.318   1_565  A
N556        N557   1.325       .  A
N556       Mn559   2.215       .  S
Mn558     Cl1496   2.545   1_455  S
Mn559      N1488   2.218       .  S
Cl560     Mn1472   2.554       .  S
Cl560     Mn1494   2.545       .  S
C561       N1487   1.354       .  A
C562        C574   1.471       .  S
C563        C564   1.397       .  A
C563        C568   1.406       .  A
C563        H570   1.084       .  S
C564        C565   1.400       .  A
C565        C566   1.393       .  A
C565       Br572   1.916       .  S
C566        C567   1.417       .  A
C566        H571   1.074       .  S
C567        C568   1.440       .  A
C568       Br569   1.928       .  S
C573        C574   1.391       .  A
C573        C578   1.395       .  A
C573        H580   1.085       .  S
C574        C575   1.402       .  A
C575        C576   1.405       .  A
C575       Br582   1.917       .  S
C576        C577   1.417       .  A
C576        H581   1.079       .  S
C577        C578   1.438       .  A
C578       Br579   1.930       .  S
C583        C584   1.400       .  A
C583        C588   1.404       .  A
C583        H590   1.084       .  S
C584        C585   1.398       .  A
C585        C586   1.399       .  A
C585       Br592   1.918       .  S
C586        C587   1.419       .  A
C586        H591   1.071       .  S
C587        C588   1.431       .  A
C588       Br589   1.926       .  S
C593        C594   1.421       .  A
C593        C598   1.387       .  A
C593        H600   1.073       .  S
C594        C595   1.430       .  A
C595        C596   1.396       .  A
C595       Br602   1.926       .  S
C596        C597   1.398       .  A
C596        H601   1.084       .  S
C597        C598   1.398       .  A
C598       Br599   1.924       .  S
C603        C604   1.420       .  A
C603        C608   1.394       .  A
C603        H610   1.084       .  S
C604        C605   1.443       .  A
C605        C606   1.398       .  A
C605       Br612   1.929       .  S
C606        C607   1.393       .  A
C606        H611   1.085       .  S
C607        C608   1.405       .  A
C608       Br609   1.921       .  S
C613        C614   1.396       .  A
C613        C618   1.399       .  A
C613        H620   1.084       .  S
C614        C615   1.403       .  A
C615        C616   1.397       .  A
C615       Br622   1.921       .  S
C616        C617   1.421       .  A
C616        H621   1.076       .  S
C617        C618   1.436       .  A
C618       Br619   1.927       .  S
C623        C624   1.415       .  A
C623        C628   1.391       .  A
C623        H630   1.071       .  S
C624        C625   1.429       .  A
C625        C626   1.392       .  A
C625       Br632   1.922       .  S
C626        C627   1.407       .  A
C626        H631   1.076       .  S
C627        C628   1.423       .  A
C628       Br629   1.933       .  S
C633        C634   1.394       .  A
C633        C638   1.402       .  A
C633        H640   1.084       .  S
C634        C635   1.400       .  A
C635        C636   1.393       .  A
C635       Br642   1.913       .  S
C636        C637   1.415       .  A
C636        H641   1.080       .  S
C637        C638   1.437       .  A
C638       Br639   1.927       .  S
C643        C644   1.391       .  A
C643        C648   1.399       .  A
C643        H650   1.084       .  S
C644        C645   1.407       .  A
C645        C646   1.401       .  A
C645       Br652   1.923       .  S
C646        C647   1.427       .  A
C646        H651   1.080       .  S
C647        C648   1.435       .  A
C648       Br649   1.901       .  S
C653        C654   1.421       .  A
C653        C658   1.402       .  A
C653        H660   1.078       .  S
C654        C655   1.439       .  A
C655        C656   1.401       .  A
C655       Br662   1.933       .  S
C656        C657   1.399       .  A
C656        H661   1.084       .  S
C657        C658   1.406       .  A
C658       Br659   1.922       .  S
C663        C664   1.418       .  A
C663        C668   1.394       .  A
C663        H670   1.080       .  S
C664        C703   1.557       .  S
C664        C899   1.435       .  A
C665        C898   1.435   1_554  A
C665        C900   1.391   1_554  A
C665       Br672   1.913       .  S
C666        C899   1.391       .  A
C666        C667   1.386       .  A
C666        H905   1.085       .  S
C667        C668   1.400       .  A
C668       Br669   1.921       .  S
H671        C900   1.085   1_554  S
C673        C908   1.395   1_554  A
C673        C678   1.405       .  A
C673        H680   1.084       .  S
C674        C907   1.395       .  A
C674        C675   1.402       .  A
C675        C676   1.398       .  A
C675       Br682   1.922       .  S
C676        C677   1.429       .  A
C676        H681   1.078       .  S
C677        C703   1.607       .  S
C677        C912   1.444       .  A
C678        C911   1.444   1_554  A
C678       Br679   1.921       .  S
C683        C684   1.397       .  A
C683        C688   1.400       .  A
C683        H690   1.084       .  S
C684        C919   1.410       .  A
C685        C918   1.410       .  A
C685        C686   1.396       .  A
C685       Br692   1.922   1_556  S
C686        C921   1.420       .  A
C686        H691   1.084   1_556  S
C687        C703   1.567       .  S
C687        C920   1.420       .  A
C687        C688   1.433       .  A
C688       Br689   1.926       .  S
C693        C694   1.414       .  A
C693        C698   1.395       .  A
C693        H700   1.069       .  S
C694        C695   1.432       .  A
C695        C696   1.396       .  A
C695       Br702   1.944       .  S
C696        C697   1.408       .  A
C696        H701   1.072       .  S
C697        C698   1.436       .  A
C698       Br699   1.940       .  S
C703        C931   1.590       .  S
C704        C871   1.559       .  S
C704        C881   1.596       .  S
C704        C888   1.593       .  S
C704        C928   1.592       .  S
C705        C828   1.553       .  S
C705        C838   1.573       .  S
C705        C851   1.581       .  S
C705        C858   1.579       .  S
C706        C801   1.572       .  S
C706        C811   1.564       .  S
C706        C821   1.567       .  S
C706        C861   1.559       .  S
N707        N708   1.316       .  A
N707        N713   1.314       .  A
N707       Mn736   2.174       .  S
N708        C715   1.350       .  A
N709        N711   1.317       .  A
N709        N710   1.319       .  A
N709       Mn725   2.188       .  S
N710        C716   1.351       .  A
N711        N712   1.316       .  A
N711       Mn736   2.184       .  S
N712        C716   1.345       .  A
N713        N714   1.317       .  A
N713       Mn725   2.185       .  S
N714        C715   1.349       .  A
C715        C831   1.463       .  S
C716        C901   1.452       .  S
N717       N1191   1.317   1_565  A
N717        N718   1.323       .  A
N718       C1194   1.354   1_565  A
N719        N720   1.316       .  A
N719        N721   1.314       .  A
N719      Mn1661   2.172       .  S
N720        C727   1.346       .  A
N721        N722   1.323       .  A
N722        C727   1.359       .  A
N723       N1185   1.317   1_455  A
N723        N724   1.325       .  A
N724        C726   1.354       .  A
Mn725      N1655   2.172   1_455  S
Mn725     Cl1685   2.548   1_455  S
C726       N1186   1.354   1_455  A
C726        C761   1.481       .  S
C727        C918   1.476       .  S
N728        N729   1.317       .  A
N728        N734   1.313       .  A
N729        C737   1.348       .  A
N730       N1200   1.316   1_565  A
N730        N731   1.326       .  A
N730       Mn748   2.232       .  S
N732       N1198   1.316   1_455  A
N732        N733   1.322       .  A
N732       Mn736   2.204       .  S
N733       C1674   1.352   1_455  A
N734        N735   1.321       .  A
N734      Mn1684   2.210   1_455  S
N735        C737   1.357       .  A
Mn736     Cl1685   2.537   1_455  S
C737        C841   1.477       .  S
C738       N1669   1.352       .  A
C738        C795   1.481       .  S
N739        N740   1.319       .  A
N739        N745   1.317       .  A
N739       Mn747   2.198       .  S
N740        C750   1.350       .  A
N741        N742   1.319       .  A
N741        N743   1.318       .  A
N741       Mn748   2.209       .  S
N742        C751   1.352       .  A
N743        N744   1.323       .  A
N743       Mn747   2.217       .  S
N744        C751   1.357       .  A
N745        N746   1.321       .  A
N745       Mn748   2.207       .  S
N746        C750   1.355       .  A
Mn748      N1670   2.210       .  S
Cl749     Mn1661   2.548       .  S
Cl749     Mn1672   2.537       .  S
C750        C848   1.477       .  S
C751        C908   1.488       .  S
N752        N753   1.323       .  A
N752        N758   1.316       .  A
N753        C760   1.356       .  A
N754       N1224   1.317   1_455  A
N754        N755   1.326       .  A
N754       Mn770   2.227       .  S
N755        C761   1.356       .  A
N756       N1222   1.317   1_565  A
N756        N757   1.322       .  A
N756       Mn781   2.209       .  S
N757       C1229   1.352   1_565  A
N758        N759   1.321       .  A
N758      Mn1706   2.201       .  S
N759        C760   1.353       .  A
C760        C891   1.486       .  S
C761       N1225   1.352   1_455  A
N762        N768   1.317       .  A
N762        N763   1.318       .  A
N762       Mn792   2.192       .  S
N763        C771   1.347       .  A
N764        N765   1.321       .  A
N764        N766   1.318       .  A
N764       Mn770   2.210       .  S
N765        C772   1.351       .  A
N766        N767   1.322       .  A
N766       Mn792   2.206       .  S
N767        C772   1.354       .  A
N768        N769   1.322       .  A
N768       Mn770   2.214       .  S
N769        C771   1.356       .  A
Mn770      N1694   2.201   1_455  S
Mn770     Cl1730   2.554   1_455  S
C771        C868   1.467       .  S
C772        C798   1.476       .  S
N773        N774   1.322       .  A
N773        N779   1.315       .  A
N773       Mn781   2.219       .  S
N774        C782   1.360       .  A
N775        N777   1.318       .  A
N775        N776   1.325       .  A
N775       Mn793   2.229       .  S
N776        C783   1.358       .  A
N777        N778   1.318       .  A
N777       Mn781   2.189       .  S
N778        C783   1.347       .  A
N779        N780   1.318       .  A
N779       Mn793   2.188       .  S
N780        C782   1.348       .  A
C782        C878   1.487       .  S
C783        C818   1.474       .  S
N784        N785   1.323       .  A
N784       N1258   1.318   1_455  A
N784       Mn792   2.219       .  S
N785       C1731   1.354   1_455  A
N786        N787   1.324       .  A
N786        N788   1.315       .  A
N786      Mn1729   2.218   1_455  S
N787        C796   1.356       .  A
N788        N789   1.318       .  A
N789        C796   1.349       .  A
N790       N1252   1.318   1_565  A
N790        N791   1.325       .  A
N790       Mn793   2.215       .  S
Mn792     Cl1730   2.545   1_455  S
Mn793      N1722   2.218       .  S
Cl794     Mn1706   2.554       .  S
Cl794     Mn1728   2.545       .  S
C795       N1721   1.354       .  A
C796        C808   1.471       .  S
C797        C798   1.397       .  A
C797        C802   1.406       .  A
C797        H804   1.084       .  S
C798        C799   1.400       .  A
C799        C800   1.393       .  A
C799       Br806   1.916       .  S
C800        C801   1.417       .  A
C800        H805   1.074       .  S
C801        C802   1.440       .  A
C802       Br803   1.928       .  S
C807        C808   1.391       .  A
C807        C812   1.395       .  A
C807        H814   1.085       .  S
C808        C809   1.402       .  A
C809        C810   1.405       .  A
C809       Br816   1.917       .  S
C810        C811   1.417       .  A
C810        H815   1.079       .  S
C811        C812   1.438       .  A
C812       Br813   1.930       .  S
C817        C818   1.400       .  A
C817        C822   1.404       .  A
C817        H824   1.084       .  S
C818        C819   1.398       .  A
C819        C820   1.399       .  A
C819       Br826   1.918       .  S
C820        C821   1.419       .  A
C820        H825   1.071       .  S
C821        C822   1.431       .  A
C822       Br823   1.926       .  S
C827        C828   1.421       .  A
C827        C832   1.387       .  A
C827        H834   1.073       .  S
C828        C829   1.430       .  A
C829        C830   1.396       .  A
C829       Br836   1.926       .  S
C830        C831   1.398       .  A
C830        H835   1.084       .  S
C831        C832   1.398       .  A
C832       Br833   1.924       .  S
C837        C838   1.420       .  A
C837        C842   1.394       .  A
C837        H844   1.084       .  S
C838        C839   1.443       .  A
C839        C840   1.398       .  A
C839       Br846   1.929       .  S
C840        C841   1.393       .  A
C840        H845   1.085       .  S
C841        C842   1.405       .  A
C842       Br843   1.921       .  S
C847        C848   1.396       .  A
C847        C852   1.399       .  A
C847        H854   1.084       .  S
C848        C849   1.403       .  A
C849        C850   1.397       .  A
C849       Br856   1.921       .  S
C850        C851   1.421       .  A
C850        H855   1.076       .  S
C851        C852   1.436       .  A
C852       Br853   1.927       .  S
C857        C858   1.415       .  A
C857        C862   1.391       .  A
C857        H864   1.071       .  S
C858        C859   1.429       .  A
C859        C860   1.392       .  A
C859       Br866   1.922       .  S
C860        C861   1.407       .  A
C860        H865   1.076       .  S
C861        C862   1.423       .  A
C862       Br863   1.933       .  S
C867        C868   1.394       .  A
C867        C872   1.402       .  A
C867        H874   1.084       .  S
C868        C869   1.400       .  A
C869        C870   1.393       .  A
C869       Br876   1.913       .  S
C870        C871   1.415       .  A
C870        H875   1.080       .  S
C871        C872   1.437       .  A
C872       Br873   1.927       .  S
C877        C878   1.391       .  A
C877        C882   1.399       .  A
C877        H884   1.084       .  S
C878        C879   1.407       .  A
C879        C880   1.401       .  A
C879       Br886   1.923       .  S
C880        C881   1.427       .  A
C880        H885   1.080       .  S
C881        C882   1.435       .  A
C882       Br883   1.901       .  S
C887        C888   1.421       .  A
C887        C892   1.402       .  A
C887        H894   1.078       .  S
C888        C889   1.439       .  A
C889        C890   1.401       .  A
C889       Br896   1.933       .  S
C890        C891   1.399       .  A
C890        H895   1.084       .  S
C891        C892   1.406       .  A
C892       Br893   1.922       .  S
C897        C898   1.418       .  A
C897        C902   1.394       .  A
C897        H904   1.080       .  S
C899       Br906   1.913       .  S
C900        C901   1.386       .  A
C901        C902   1.400       .  A
C902       Br903   1.921       .  S
C907        C912   1.405       .  A
C907        H914   1.084       .  S
C908        C909   1.402       .  A
C909        C910   1.398       .  A
C909       Br916   1.922       .  S
C910        C911   1.429       .  A
C910        H915   1.078       .  S
C912       Br913   1.921       .  S
C917        C918   1.397       .  A
C917        C922   1.400       .  A
C917        H924   1.084       .  S
C919        C920   1.396       .  A
C919       Br926   1.922       .  S
C920        H925   1.084       .  S
C921        C922   1.433       .  A
C922       Br923   1.926       .  S
C927        C928   1.414       .  A
C927        C932   1.395       .  A
C927        H934   1.069       .  S
C928        C929   1.432       .  A
C929        C930   1.396       .  A
C929       Br936   1.944       .  S
C930        C931   1.408       .  A
C930        H935   1.072       .  S
C931        C932   1.436       .  A
C932       Br933   1.940       .  S
C937       C1366   1.557   1_554  S
C937       C1379   1.607   1_554  S
C937       C1389   1.567   1_554  S
C937       C1165   1.590       .  S
C938       C1105   1.559       .  S
C938       C1115   1.596       .  S
C938       C1122   1.593       .  S
C938       C1162   1.592       .  S
C939       C1062   1.554       .  S
C939       C1072   1.573       .  S
C939       C1085   1.581       .  S
C939       C1092   1.579       .  S
C940       C1035   1.572       .  S
C940       C1045   1.564       .  S
C940       C1055   1.567       .  S
C940       C1095   1.559       .  S
N941        N942   1.316       .  A
N941        N947   1.314       .  A
N941       Mn970   2.174       .  S
N942        C949   1.350       .  A
N943        N945   1.317       .  A
N943        N944   1.319       .  A
N943       Mn959   2.188       .  S
N944        C950   1.351       .  A
N945        N946   1.316       .  A
N945       Mn970   2.184       .  S
N946        C950   1.345       .  A
N947        N948   1.317       .  A
N947       Mn959   2.185       .  S
N948        C949   1.349       .  A
C949       C1065   1.463       .  S
C950       C1135   1.452       .  S
N951        N952   1.323       .  A
N951      Mn1215   2.221   1_554  S
N953        N954   1.316       .  A
N953        N955   1.314       .  A
N954        C961   1.346       .  A
N955        N956   1.323       .  A
N955      Mn1449   2.220   1_545  S
N956        C961   1.359       .  A
N957        N958   1.325       .  A
N957      Mn1193   2.212   1_554  S
N958        C960   1.354       .  A
Mn959      N1191   2.212       .  S
C960        C995   1.481       .  S
C961       C1152   1.476       .  S
N962        N963   1.317       .  A
N962        N968   1.313       .  A
N962      Mn1438   2.174       .  S
N963        C971   1.348       .  A
N964        N965   1.326       .  A
N964       Mn982   2.232       .  S
N965       C1440   1.358       .  A
N966        N967   1.322       .  A
N966       Mn970   2.204       .  S
N968        N969   1.321       .  A
N969        C971   1.357       .  A
Mn970      N1430   2.174   1_545  S
C971       C1075   1.477       .  S
C972       N1433   1.358   1_545  A
C972       C1029   1.481       .  S
N973        N974   1.319       .  A
N973        N979   1.317       .  A
N973       Mn981   2.198       .  S
N974        C984   1.350       .  A
N975        N976   1.319       .  A
N975        N977   1.318       .  A
N975       Mn982   2.209       .  S
N976        C985   1.352       .  A
N977        N978   1.323       .  A
N977       Mn981   2.217       .  S
N978        C985   1.357       .  A
N979        N980   1.321       .  A
N979       Mn982   2.207       .  S
N980        C984   1.355       .  A
Mn981      N1185   2.221       .  S
Mn981      N1423   2.220       .  S
Mn981     Cl1451   2.541       .  S
Mn982     Cl1451   2.551       .  S
Cl983     Mn1449   2.541   1_545  S
Cl983     Mn1450   2.551   1_545  S
C984       C1082   1.477       .  S
C985       C1142   1.488       .  S
N986        N987   1.323       .  A
N986        N992   1.316       .  A
N986      Mn1483   2.220   1_545  S
N987        C994   1.356       .  A
N988        N989   1.326       .  A
N988      Mn1004   2.227       .  S
N989        C995   1.356       .  A
N990        N991   1.322       .  A
N990      Mn1015   2.209       .  S
N992        N993   1.321       .  A
N993        C994   1.353       .  A
C994       C1125   1.486       .  S
N996       N1002   1.317       .  A
N996        N997   1.318       .  A
N996      Mn1026   2.192       .  S
N997       C1005   1.347       .  A
N998        N999   1.321       .  A
N998       N1000   1.318       .  A
N998      Mn1004   2.210       .  S
N999       C1006   1.351       .  A
N1000      N1001   1.322       .  A
N1000     Mn1026   2.206       .  S
N1001      C1006   1.354       .  A
N1002      N1003   1.322       .  A
N1002     Mn1004   2.214       .  S
N1003      C1005   1.356       .  A
C1005      C1102   1.467       .  S
C1006      C1032   1.476       .  S
N1007      N1008   1.322       .  A
N1007      N1013   1.315       .  A
N1007     Mn1015   2.219       .  S
N1008      C1016   1.360       .  A
N1009      N1011   1.318       .  A
N1009      N1010   1.325       .  A
N1009     Mn1027   2.229       .  S
N1010      C1017   1.358       .  A
N1011      N1012   1.318       .  A
N1011     Mn1015   2.189       .  S
N1012      C1017   1.347       .  A
N1013      N1014   1.318       .  A
N1013     Mn1027   2.188       .  S
N1014      C1016   1.348       .  A
Mn1015     N1454   2.220       .  S
Mn1015    Cl1496   2.546       .  S
C1016      C1112   1.487       .  S
C1017      C1052   1.474       .  S
N1018      N1019   1.323       .  A
N1018     Mn1026   2.219       .  S
N1020      N1021   1.324       .  A
N1020      N1022   1.315       .  A
N1021      C1030   1.356       .  A
N1022      N1023   1.318       .  A
N1022     Mn1494   2.189       .  S
N1023      C1030   1.349       .  A
N1024      N1025   1.325       .  A
N1024     Mn1027   2.215       .  S
N1025      C1497   1.353       .  A
Mn1026     N1490   2.189   1_545  S
Mn1027    Cl1496   2.551       .  S
Cl1028    Mn1483   2.546   1_545  S
Cl1028    Mn1495   2.551   1_545  S
C1029      N1493   1.353   1_545  A
C1030      C1042   1.471       .  S
C1031      C1032   1.397       .  A
C1031      C1036   1.406       .  A
C1031      H1038   1.084       .  S
C1032      C1033   1.400       .  A
C1033      C1034   1.393       .  A
C1033     Br1040   1.916       .  S
C1034      C1035   1.417       .  A
C1034      H1039   1.074       .  S
C1035      C1036   1.440       .  A
C1036     Br1037   1.928       .  S
C1041      C1042   1.391       .  A
C1041      C1046   1.395       .  A
C1041      H1048   1.085       .  S
C1042      C1043   1.402       .  A
C1043      C1044   1.405       .  A
C1043     Br1050   1.917       .  S
C1044      C1045   1.417       .  A
C1044      H1049   1.079       .  S
C1045      C1046   1.438       .  A
C1046     Br1047   1.930       .  S
C1051      C1052   1.400       .  A
C1051      C1056   1.404       .  A
C1051      H1058   1.084       .  S
C1052      C1053   1.398       .  A
C1053      C1054   1.399       .  A
C1053     Br1060   1.918       .  S
C1054      C1055   1.419       .  A
C1054      H1059   1.071       .  S
C1055      C1056   1.431       .  A
C1056     Br1057   1.926       .  S
C1061      C1062   1.421       .  A
C1061      C1066   1.387       .  A
C1061      H1068   1.073       .  S
C1062      C1063   1.430       .  A
C1063      C1064   1.396       .  A
C1063     Br1070   1.926       .  S
C1064      C1065   1.398       .  A
C1064      H1069   1.084       .  S
C1065      C1066   1.398       .  A
C1066     Br1067   1.924       .  S
C1071      C1072   1.420       .  A
C1071      C1076   1.394       .  A
C1071      H1078   1.084       .  S
C1072      C1073   1.443       .  A
C1073      C1074   1.398       .  A
C1073     Br1080   1.929       .  S
C1074      C1075   1.393       .  A
C1074      H1079   1.085       .  S
C1075      C1076   1.405       .  A
C1076     Br1077   1.921       .  S
C1081      C1082   1.396       .  A
C1081      C1086   1.399       .  A
C1081      H1088   1.084       .  S
C1082      C1083   1.403       .  A
C1083      C1084   1.397       .  A
C1083     Br1090   1.921       .  S
C1084      C1085   1.421       .  A
C1084      H1089   1.076       .  S
C1085      C1086   1.436       .  A
C1086     Br1087   1.927       .  S
C1091      C1092   1.415       .  A
C1091      C1096   1.391       .  A
C1091      H1098   1.071       .  S
C1092      C1093   1.429       .  A
C1093      C1094   1.392       .  A
C1093     Br1100   1.922       .  S
C1094      C1095   1.408       .  A
C1094      H1099   1.076       .  S
C1095      C1096   1.423       .  A
C1096     Br1097   1.932       .  S
C1101      C1102   1.394       .  A
C1101      C1106   1.402       .  A
C1101      H1108   1.084       .  S
C1102      C1103   1.400       .  A
C1103      C1104   1.393       .  A
C1103     Br1110   1.913       .  S
C1104      C1105   1.415       .  A
C1104      H1109   1.080       .  S
C1105      C1106   1.437       .  A
C1106     Br1107   1.927       .  S
C1111      C1112   1.391       .  A
C1111      C1116   1.399       .  A
C1111      H1118   1.084       .  S
C1112      C1113   1.407       .  A
C1113      C1114   1.401       .  A
C1113     Br1120   1.923       .  S
C1114      C1115   1.427       .  A
C1114      H1119   1.080       .  S
C1115      C1116   1.435       .  A
C1116     Br1117   1.901       .  S
C1121      C1122   1.421       .  A
C1121      C1126   1.402       .  A
C1121      H1128   1.078       .  S
C1122      C1123   1.439       .  A
C1123      C1124   1.401       .  A
C1123     Br1130   1.933       .  S
C1124      C1125   1.399       .  A
C1124      H1129   1.084       .  S
C1125      C1126   1.406       .  A
C1126     Br1127   1.922       .  S
C1131      C1132   1.418       .  A
C1131      C1136   1.394       .  A
C1131      H1138   1.080       .  S
C1132      C1171   1.557       .  S
C1132      C1367   1.435       .  A
C1133      C1366   1.435   1_554  A
C1133      C1368   1.391   1_554  A
C1133     Br1140   1.913       .  S
C1134      C1367   1.391       .  A
C1134      C1135   1.386       .  A
C1134      H1373   1.085       .  S
C1135      C1136   1.400       .  A
C1136     Br1137   1.921       .  S
H1139      C1368   1.085   1_554  S
C1141      C1376   1.395   1_554  A
C1141      C1146   1.405       .  A
C1141      H1148   1.084       .  S
C1142      C1375   1.395       .  A
C1142      C1143   1.402       .  A
C1143      C1144   1.398       .  A
C1143     Br1150   1.922       .  S
C1144      C1145   1.429       .  A
C1144      H1149   1.078       .  S
C1145      C1171   1.607       .  S
C1145      C1380   1.444       .  A
C1146      C1379   1.444   1_554  A
C1146     Br1147   1.921       .  S
C1151      C1152   1.397       .  A
C1151      C1156   1.400       .  A
C1151      H1158   1.084       .  S
C1152      C1387   1.410       .  A
C1153      C1386   1.410       .  A
C1153      C1154   1.396       .  A
C1153     Br1160   1.922   1_556  S
C1154      C1389   1.420       .  A
C1154      H1159   1.084   1_556  S
C1155      C1171   1.567       .  S
C1155      C1388   1.420       .  A
C1155      C1156   1.433       .  A
C1156     Br1157   1.926       .  S
C1161      C1162   1.414       .  A
C1161      C1166   1.395       .  A
C1161      H1168   1.069       .  S
C1162      C1163   1.432       .  A
C1163      C1164   1.396       .  A
C1163     Br1170   1.944       .  S
C1164      C1165   1.408       .  A
C1164      H1169   1.072       .  S
C1165      C1166   1.436       .  A
C1166     Br1167   1.940       .  S
C1171      C1399   1.590       .  S
C1172      C1339   1.559       .  S
C1172      C1349   1.596       .  S
C1172      C1356   1.593       .  S
C1172      C1396   1.592       .  S
C1173      C1296   1.554       .  S
C1173      C1306   1.573       .  S
C1173      C1319   1.581       .  S
C1173      C1326   1.579       .  S
C1174      C1269   1.572       .  S
C1174      C1279   1.564       .  S
C1174      C1289   1.567       .  S
C1174      C1329   1.559       .  S
N1175      N1176   1.316       .  A
N1175      N1181   1.314       .  A
N1175     Mn1204   2.174       .  S
N1176      C1183   1.350       .  A
N1177      N1179   1.317       .  A
N1177      N1178   1.319       .  A
N1177     Mn1193   2.188       .  S
N1178      C1184   1.351       .  A
N1179      N1180   1.316       .  A
N1179     Mn1204   2.184       .  S
N1180      C1184   1.345       .  A
N1181      N1182   1.317       .  A
N1181     Mn1193   2.185       .  S
N1182      C1183   1.349       .  A
C1183      C1299   1.463       .  S
C1184      C1369   1.452       .  S
N1185      N1186   1.323       .  A
N1187      N1188   1.316       .  A
N1187      N1189   1.314       .  A
N1188      C1195   1.346       .  A
N1189      N1190   1.323       .  A
N1189     Mn1683   2.220   1_545  S
N1190      C1195   1.359       .  A
N1191      N1192   1.325       .  A
N1192      C1194   1.354       .  A
C1194      C1229   1.481       .  S
C1195      C1386   1.476       .  S
N1196      N1197   1.317       .  A
N1196      N1202   1.313       .  A
N1196     Mn1672   2.174       .  S
N1197      C1205   1.348       .  A
N1198      N1199   1.326       .  A
N1198     Mn1216   2.232       .  S
N1199      C1674   1.358       .  A
N1200      N1201   1.322       .  A
N1200     Mn1204   2.204       .  S
N1202      N1203   1.321       .  A
N1203      C1205   1.357       .  A
Mn1204     N1664   2.174   1_545  S
C1205      C1309   1.477       .  S
C1206      N1667   1.358   1_545  A
C1206      C1263   1.481       .  S
N1207      N1208   1.319       .  A
N1207      N1213   1.317       .  A
N1207     Mn1215   2.198       .  S
N1208      C1218   1.350       .  A
N1209      N1210   1.319       .  A
N1209      N1211   1.318       .  A
N1209     Mn1216   2.209       .  S
N1210      C1219   1.352       .  A
N1211      N1212   1.323       .  A
N1211     Mn1215   2.217       .  S
N1212      C1219   1.357       .  A
N1213      N1214   1.321       .  A
N1213     Mn1216   2.207       .  S
N1214      C1218   1.355       .  A
Mn1215     N1657   2.220       .  S
Mn1215    Cl1685   2.541       .  S
Mn1216    Cl1685   2.551       .  S
Cl1217    Mn1683   2.541   1_545  S
Cl1217    Mn1684   2.551   1_545  S
C1218      C1316   1.477       .  S
C1219      C1376   1.488       .  S
N1220      N1221   1.323       .  A
N1220      N1226   1.316       .  A
N1220     Mn1717   2.220   1_545  S
N1221      C1228   1.356       .  A
N1222      N1223   1.326       .  A
N1222     Mn1238   2.227       .  S
N1223      C1229   1.356       .  A
N1224      N1225   1.322       .  A
N1224     Mn1249   2.209       .  S
N1226      N1227   1.321       .  A
N1227      C1228   1.353       .  A
C1228      C1359   1.486       .  S
N1230      N1236   1.317       .  A
N1230      N1231   1.318       .  A
N1230     Mn1260   2.192       .  S
N1231      C1239   1.347       .  A
N1232      N1233   1.321       .  A
N1232      N1234   1.318       .  A
N1232     Mn1238   2.210       .  S
N1233      C1240   1.351       .  A
N1234      N1235   1.322       .  A
N1234     Mn1260   2.206       .  S
N1235      C1240   1.354       .  A
N1236      N1237   1.322       .  A
N1236     Mn1238   2.214       .  S
N1237      C1239   1.356       .  A
C1239      C1336   1.467       .  S
C1240      C1266   1.476       .  S
N1241      N1242   1.322       .  A
N1241      N1247   1.315       .  A
N1241     Mn1249   2.219       .  S
N1242      C1250   1.360       .  A
N1243      N1245   1.318       .  A
N1243      N1244   1.325       .  A
N1243     Mn1261   2.229       .  S
N1244      C1251   1.358       .  A
N1245      N1246   1.318       .  A
N1245     Mn1249   2.189       .  S
N1246      C1251   1.347       .  A
N1247      N1248   1.318       .  A
N1247     Mn1261   2.188       .  S
N1248      C1250   1.348       .  A
Mn1249     N1688   2.220       .  S
Mn1249    Cl1730   2.546       .  S
C1250      C1346   1.487       .  S
C1251      C1286   1.474       .  S
N1252      N1253   1.323       .  A
N1252     Mn1260   2.219       .  S
N1254      N1255   1.324       .  A
N1254      N1256   1.315       .  A
N1255      C1264   1.356       .  A
N1256      N1257   1.318       .  A
N1256     Mn1728   2.189       .  S
N1257      C1264   1.349       .  A
N1258      N1259   1.325       .  A
N1258     Mn1261   2.215       .  S
N1259      C1731   1.353       .  A
Mn1260     N1724   2.189   1_545  S
Mn1261    Cl1730   2.551       .  S
Cl1262    Mn1717   2.546   1_545  S
Cl1262    Mn1729   2.551   1_545  S
C1263      N1727   1.353   1_545  A
C1264      C1276   1.471       .  S
C1265      C1266   1.397       .  A
C1265      C1270   1.406       .  A
C1265      H1272   1.084       .  S
C1266      C1267   1.400       .  A
C1267      C1268   1.393       .  A
C1267     Br1274   1.916       .  S
C1268      C1269   1.417       .  A
C1268      H1273   1.074       .  S
C1269      C1270   1.440       .  A
C1270     Br1271   1.928       .  S
C1275      C1276   1.391       .  A
C1275      C1280   1.395       .  A
C1275      H1282   1.085       .  S
C1276      C1277   1.402       .  A
C1277      C1278   1.405       .  A
C1277     Br1284   1.917       .  S
C1278      C1279   1.417       .  A
C1278      H1283   1.079       .  S
C1279      C1280   1.438       .  A
C1280     Br1281   1.930       .  S
C1285      C1286   1.400       .  A
C1285      C1290   1.404       .  A
C1285      H1292   1.084       .  S
C1286      C1287   1.398       .  A
C1287      C1288   1.399       .  A
C1287     Br1294   1.918       .  S
C1288      C1289   1.419       .  A
C1288      H1293   1.071       .  S
C1289      C1290   1.431       .  A
C1290     Br1291   1.926       .  S
C1295      C1296   1.421       .  A
C1295      C1300   1.387       .  A
C1295      H1302   1.073       .  S
C1296      C1297   1.430       .  A
C1297      C1298   1.396       .  A
C1297     Br1304   1.926       .  S
C1298      C1299   1.398       .  A
C1298      H1303   1.084       .  S
C1299      C1300   1.398       .  A
C1300     Br1301   1.924       .  S
C1305      C1306   1.420       .  A
C1305      C1310   1.394       .  A
C1305      H1312   1.084       .  S
C1306      C1307   1.443       .  A
C1307      C1308   1.398       .  A
C1307     Br1314   1.929       .  S
C1308      C1309   1.393       .  A
C1308      H1313   1.085       .  S
C1309      C1310   1.405       .  A
C1310     Br1311   1.921       .  S
C1315      C1316   1.396       .  A
C1315      C1320   1.399       .  A
C1315      H1322   1.084       .  S
C1316      C1317   1.403       .  A
C1317      C1318   1.397       .  A
C1317     Br1324   1.921       .  S
C1318      C1319   1.421       .  A
C1318      H1323   1.076       .  S
C1319      C1320   1.436       .  A
C1320     Br1321   1.927       .  S
C1325      C1326   1.415       .  A
C1325      C1330   1.391       .  A
C1325      H1332   1.071       .  S
C1326      C1327   1.429       .  A
C1327      C1328   1.392       .  A
C1327     Br1334   1.922       .  S
C1328      C1329   1.408       .  A
C1328      H1333   1.076       .  S
C1329      C1330   1.423       .  A
C1330     Br1331   1.932       .  S
C1335      C1336   1.394       .  A
C1335      C1340   1.402       .  A
C1335      H1342   1.084       .  S
C1336      C1337   1.400       .  A
C1337      C1338   1.393       .  A
C1337     Br1344   1.913       .  S
C1338      C1339   1.415       .  A
C1338      H1343   1.080       .  S
C1339      C1340   1.437       .  A
C1340     Br1341   1.927       .  S
C1345      C1346   1.391       .  A
C1345      C1350   1.399       .  A
C1345      H1352   1.084       .  S
C1346      C1347   1.407       .  A
C1347      C1348   1.401       .  A
C1347     Br1354   1.923       .  S
C1348      C1349   1.427       .  A
C1348      H1353   1.080       .  S
C1349      C1350   1.435       .  A
C1350     Br1351   1.901       .  S
C1355      C1356   1.421       .  A
C1355      C1360   1.402       .  A
C1355      H1362   1.078       .  S
C1356      C1357   1.439       .  A
C1357      C1358   1.401       .  A
C1357     Br1364   1.933       .  S
C1358      C1359   1.399       .  A
C1358      H1363   1.084       .  S
C1359      C1360   1.406       .  A
C1360     Br1361   1.922       .  S
C1365      C1366   1.418       .  A
C1365      C1370   1.394       .  A
C1365      H1372   1.080       .  S
C1367     Br1374   1.913       .  S
C1368      C1369   1.386       .  A
C1369      C1370   1.400       .  A
C1370     Br1371   1.921       .  S
C1375      C1380   1.405       .  A
C1375      H1382   1.084       .  S
C1376      C1377   1.402       .  A
C1377      C1378   1.398       .  A
C1377     Br1384   1.922       .  S
C1378      C1379   1.429       .  A
C1378      H1383   1.078       .  S
C1380     Br1381   1.921       .  S
C1385      C1386   1.397       .  A
C1385      C1390   1.400       .  A
C1385      H1392   1.084       .  S
C1387      C1388   1.396       .  A
C1387     Br1394   1.922       .  S
C1388      H1393   1.084       .  S
C1389      C1390   1.433       .  A
C1390     Br1391   1.926       .  S
C1395      C1396   1.414       .  A
C1395      C1400   1.395       .  A
C1395      H1402   1.069       .  S
C1396      C1397   1.432       .  A
C1397      C1398   1.396       .  A
C1397     Br1404   1.944       .  S
C1398      C1399   1.408       .  A
C1398      H1403   1.072       .  S
C1399      C1400   1.436       .  A
C1400     Br1401   1.940       .  S
C1405      C1834   1.557   1_554  S
C1405      C1847   1.607   1_554  S
C1405      C1857   1.567   1_554  S
C1405      C1633   1.590       .  S
C1406      C1573   1.559       .  S
C1406      C1583   1.596       .  S
C1406      C1590   1.593       .  S
C1406      C1630   1.592       .  S
C1407      C1530   1.553       .  S
C1407      C1540   1.573       .  S
C1407      C1553   1.581       .  S
C1407      C1560   1.579       .  S
C1408      C1503   1.572       .  S
C1408      C1513   1.564       .  S
C1408      C1523   1.567       .  S
C1408      C1563   1.559       .  S
N1409      N1410   1.316       .  A
N1409      N1415   1.314       .  A
N1409     Mn1438   2.174       .  S
N1410      C1417   1.350       .  A
N1411      N1413   1.317       .  A
N1411      N1412   1.319       .  A
N1411     Mn1427   2.188       .  S
N1412      C1418   1.351       .  A
N1413      N1414   1.316       .  A
N1413     Mn1438   2.184       .  S
N1414      C1418   1.345       .  A
N1415      N1416   1.317       .  A
N1415     Mn1427   2.185       .  S
N1416      C1417   1.349       .  A
C1417      C1533   1.463       .  S
C1418      C1603   1.452       .  S
N1419      N1420   1.323       .  A
N1419     Mn1683   2.221   1_554  S
N1421      N1422   1.316       .  A
N1421      N1423   1.314       .  A
N1422      C1429   1.346       .  A
N1423      N1424   1.323       .  A
N1424      C1429   1.359       .  A
N1425      N1426   1.325       .  A
N1425     Mn1661   2.212   1_554  S
N1426      C1428   1.354       .  A
Mn1427     N1659   2.212       .  S
C1428      C1463   1.481       .  S
C1429      C1620   1.476       .  S
N1430      N1431   1.317       .  A
N1430      N1436   1.313       .  A
N1431      C1439   1.348       .  A
N1432      N1433   1.326       .  A
N1432     Mn1450   2.232       .  S
N1434      N1435   1.322       .  A
N1434     Mn1438   2.204       .  S
N1436      N1437   1.321       .  A
N1437      C1439   1.357       .  A
C1439      C1543   1.477       .  S
C1440      C1497   1.481       .  S
N1441      N1442   1.319       .  A
N1441      N1447   1.317       .  A
N1441     Mn1449   2.198       .  S
N1442      C1452   1.350       .  A
N1443      N1444   1.319       .  A
N1443      N1445   1.318       .  A
N1443     Mn1450   2.209       .  S
N1444      C1453   1.352       .  A
N1445      N1446   1.323       .  A
N1445     Mn1449   2.217       .  S
N1446      C1453   1.357       .  A
N1447      N1448   1.321       .  A
N1447     Mn1450   2.207       .  S
N1448      C1452   1.355       .  A
Mn1449     N1653   2.221       .  S
C1452      C1550   1.477       .  S
C1453      C1610   1.488       .  S
N1454      N1455   1.323       .  A
N1454      N1460   1.316       .  A
N1455      C1462   1.356       .  A
N1456      N1457   1.326       .  A
N1456     Mn1472   2.227       .  S
N1457      C1463   1.356       .  A
N1458      N1459   1.322       .  A
N1458     Mn1483   2.209       .  S
N1460      N1461   1.321       .  A
N1461      C1462   1.353       .  A
C1462      C1593   1.486       .  S
N1464      N1470   1.317       .  A
N1464      N1465   1.318       .  A
N1464     Mn1494   2.192       .  S
N1465      C1473   1.347       .  A
N1466      N1467   1.321       .  A
N1466      N1468   1.318       .  A
N1466     Mn1472   2.210       .  S
N1467      C1474   1.351       .  A
N1468      N1469   1.322       .  A
N1468     Mn1494   2.206       .  S
N1469      C1474   1.354       .  A
N1470      N1471   1.322       .  A
N1470     Mn1472   2.214       .  S
N1471      C1473   1.356       .  A
C1473      C1570   1.467       .  S
C1474      C1500   1.476       .  S
N1475      N1476   1.322       .  A
N1475      N1481   1.315       .  A
N1475     Mn1483   2.219       .  S
N1476      C1484   1.360       .  A
N1477      N1479   1.318       .  A
N1477      N1478   1.325       .  A
N1477     Mn1495   2.229       .  S
N1478      C1485   1.358       .  A
N1479      N1480   1.318       .  A
N1479     Mn1483   2.189       .  S
N1480      C1485   1.347       .  A
N1481      N1482   1.318       .  A
N1481     Mn1495   2.188       .  S
N1482      C1484   1.348       .  A
C1484      C1580   1.487       .  S
C1485      C1520   1.474       .  S
N1486      N1487   1.323       .  A
N1486     Mn1494   2.219       .  S
N1488      N1489   1.324       .  A
N1488      N1490   1.315       .  A
N1489      C1498   1.356       .  A
N1490      N1491   1.318       .  A
N1491      C1498   1.349       .  A
N1492      N1493   1.325       .  A
N1492     Mn1495   2.215       .  S
C1498      C1510   1.471       .  S
C1499      C1500   1.397       .  A
C1499      C1504   1.406       .  A
C1499      H1506   1.084       .  S
C1500      C1501   1.400       .  A
C1501      C1502   1.393       .  A
C1501     Br1508   1.916       .  S
C1502      C1503   1.417       .  A
C1502      H1507   1.074       .  S
C1503      C1504   1.440       .  A
C1504     Br1505   1.928       .  S
C1509      C1510   1.391       .  A
C1509      C1514   1.395       .  A
C1509      H1516   1.085       .  S
C1510      C1511   1.402       .  A
C1511      C1512   1.405       .  A
C1511     Br1518   1.917       .  S
C1512      C1513   1.417       .  A
C1512      H1517   1.079       .  S
C1513      C1514   1.438       .  A
C1514     Br1515   1.930       .  S
C1519      C1520   1.400       .  A
C1519      C1524   1.404       .  A
C1519      H1526   1.084       .  S
C1520      C1521   1.398       .  A
C1521      C1522   1.399       .  A
C1521     Br1528   1.918       .  S
C1522      C1523   1.419       .  A
C1522      H1527   1.071       .  S
C1523      C1524   1.431       .  A
C1524     Br1525   1.926       .  S
C1529      C1530   1.421       .  A
C1529      C1534   1.387       .  A
C1529      H1536   1.073       .  S
C1530      C1531   1.430       .  A
C1531      C1532   1.396       .  A
C1531     Br1538   1.926       .  S
C1532      C1533   1.398       .  A
C1532      H1537   1.084       .  S
C1533      C1534   1.398       .  A
C1534     Br1535   1.924       .  S
C1539      C1540   1.420       .  A
C1539      C1544   1.394       .  A
C1539      H1546   1.084       .  S
C1540      C1541   1.443       .  A
C1541      C1542   1.398       .  A
C1541     Br1548   1.929       .  S
C1542      C1543   1.393       .  A
C1542      H1547   1.085       .  S
C1543      C1544   1.405       .  A
C1544     Br1545   1.921       .  S
C1549      C1550   1.396       .  A
C1549      C1554   1.399       .  A
C1549      H1556   1.084       .  S
C1550      C1551   1.403       .  A
C1551      C1552   1.397       .  A
C1551     Br1558   1.921       .  S
C1552      C1553   1.421       .  A
C1552      H1557   1.076       .  S
C1553      C1554   1.436       .  A
C1554     Br1555   1.927       .  S
C1559      C1560   1.415       .  A
C1559      C1564   1.391       .  A
C1559      H1566   1.071       .  S
C1560      C1561   1.429       .  A
C1561      C1562   1.392       .  A
C1561     Br1568   1.922       .  S
C1562      C1563   1.407       .  A
C1562      H1567   1.076       .  S
C1563      C1564   1.423       .  A
C1564     Br1565   1.933       .  S
C1569      C1570   1.394       .  A
C1569      C1574   1.402       .  A
C1569      H1576   1.084       .  S
C1570      C1571   1.400       .  A
C1571      C1572   1.393       .  A
C1571     Br1578   1.913       .  S
C1572      C1573   1.415       .  A
C1572      H1577   1.080       .  S
C1573      C1574   1.437       .  A
C1574     Br1575   1.927       .  S
C1579      C1580   1.391       .  A
C1579      C1584   1.399       .  A
C1579      H1586   1.084       .  S
C1580      C1581   1.407       .  A
C1581      C1582   1.401       .  A
C1581     Br1588   1.923       .  S
C1582      C1583   1.427       .  A
C1582      H1587   1.080       .  S
C1583      C1584   1.435       .  A
C1584     Br1585   1.901       .  S
C1589      C1590   1.421       .  A
C1589      C1594   1.402       .  A
C1589      H1596   1.078       .  S
C1590      C1591   1.439       .  A
C1591      C1592   1.401       .  A
C1591     Br1598   1.933       .  S
C1592      C1593   1.399       .  A
C1592      H1597   1.084       .  S
C1593      C1594   1.406       .  A
C1594     Br1595   1.922       .  S
C1599      C1600   1.418       .  A
C1599      C1604   1.394       .  A
C1599      H1606   1.080       .  S
C1600      C1639   1.557       .  S
C1600      C1835   1.435       .  A
C1601      C1834   1.435   1_554  A
C1601      C1836   1.391   1_554  A
C1601     Br1608   1.913       .  S
C1602      C1835   1.391       .  A
C1602      C1603   1.386       .  A
C1602      H1841   1.085       .  S
C1603      C1604   1.400       .  A
C1604     Br1605   1.921       .  S
H1607      C1836   1.085   1_554  S
C1609      C1844   1.395   1_554  A
C1609      C1614   1.405       .  A
C1609      H1616   1.084       .  S
C1610      C1843   1.395       .  A
C1610      C1611   1.402       .  A
C1611      C1612   1.398       .  A
C1611     Br1618   1.922       .  S
C1612      C1613   1.429       .  A
C1612      H1617   1.078       .  S
C1613      C1639   1.607       .  S
C1613      C1848   1.444       .  A
C1614      C1847   1.444   1_554  A
C1614     Br1615   1.921       .  S
C1619      C1620   1.397       .  A
C1619      C1624   1.400       .  A
C1619      H1626   1.084       .  S
C1620      C1855   1.410       .  A
C1621      C1854   1.410       .  A
C1621      C1622   1.396       .  A
C1621     Br1628   1.922   1_556  S
C1622      C1857   1.420       .  A
C1622      H1627   1.084   1_556  S
C1623      C1639   1.567       .  S
C1623      C1856   1.420       .  A
C1623      C1624   1.433       .  A
C1624     Br1625   1.926       .  S
C1629      C1630   1.414       .  A
C1629      C1634   1.395       .  A
C1629      H1636   1.069       .  S
C1630      C1631   1.432       .  A
C1631      C1632   1.396       .  A
C1631     Br1638   1.944       .  S
C1632      C1633   1.408       .  A
C1632      H1637   1.072       .  S
C1633      C1634   1.436       .  A
C1634     Br1635   1.940       .  S
C1639      C1867   1.590       .  S
C1640      C1807   1.559       .  S
C1640      C1817   1.596       .  S
C1640      C1824   1.593       .  S
C1640      C1864   1.592       .  S
C1641      C1764   1.553       .  S
C1641      C1774   1.573       .  S
C1641      C1787   1.581       .  S
C1641      C1794   1.579       .  S
C1642      C1737   1.572       .  S
C1642      C1747   1.564       .  S
C1642      C1757   1.567       .  S
C1642      C1797   1.559       .  S
N1643      N1644   1.316       .  A
N1643      N1649   1.314       .  A
N1643     Mn1672   2.174       .  S
N1644      C1651   1.350       .  A
N1645      N1647   1.317       .  A
N1645      N1646   1.319       .  A
N1645     Mn1661   2.188       .  S
N1646      C1652   1.351       .  A
N1647      N1648   1.316       .  A
N1647     Mn1672   2.184       .  S
N1648      C1652   1.345       .  A
N1649      N1650   1.317       .  A
N1649     Mn1661   2.185       .  S
N1650      C1651   1.349       .  A
C1651      C1767   1.463       .  S
C1652      C1837   1.452       .  S
N1653      N1654   1.323       .  A
N1655      N1656   1.316       .  A
N1655      N1657   1.314       .  A
N1656      C1663   1.346       .  A
N1657      N1658   1.323       .  A
N1658      C1663   1.359       .  A
N1659      N1660   1.325       .  A
N1660      C1662   1.354       .  A
C1662      C1697   1.481       .  S
C1663      C1854   1.476       .  S
N1664      N1665   1.317       .  A
N1664      N1670   1.313       .  A
N1665      C1673   1.348       .  A
N1666      N1667   1.326       .  A
N1666     Mn1684   2.232       .  S
N1668      N1669   1.322       .  A
N1668     Mn1672   2.204       .  S
N1670      N1671   1.321       .  A
N1671      C1673   1.357       .  A
C1673      C1777   1.477       .  S
C1674      C1731   1.481       .  S
N1675      N1676   1.319       .  A
N1675      N1681   1.317       .  A
N1675     Mn1683   2.198       .  S
N1676      C1686   1.350       .  A
N1677      N1678   1.319       .  A
N1677      N1679   1.318       .  A
N1677     Mn1684   2.209       .  S
N1678      C1687   1.352       .  A
N1679      N1680   1.323       .  A
N1679     Mn1683   2.217       .  S
N1680      C1687   1.357       .  A
N1681      N1682   1.321       .  A
N1681     Mn1684   2.207       .  S
N1682      C1686   1.355       .  A
C1686      C1784   1.477       .  S
C1687      C1844   1.488       .  S
N1688      N1689   1.323       .  A
N1688      N1694   1.316       .  A
N1689      C1696   1.356       .  A
N1690      N1691   1.326       .  A
N1690     Mn1706   2.227       .  S
N1691      C1697   1.356       .  A
N1692      N1693   1.322       .  A
N1692     Mn1717   2.209       .  S
N1694      N1695   1.321       .  A
N1695      C1696   1.353       .  A
C1696      C1827   1.486       .  S
N1698      N1704   1.317       .  A
N1698      N1699   1.318       .  A
N1698     Mn1728   2.192       .  S
N1699      C1707   1.347       .  A
N1700      N1701   1.321       .  A
N1700      N1702   1.318       .  A
N1700     Mn1706   2.210       .  S
N1701      C1708   1.351       .  A
N1702      N1703   1.322       .  A
N1702     Mn1728   2.206       .  S
N1703      C1708   1.354       .  A
N1704      N1705   1.322       .  A
N1704     Mn1706   2.214       .  S
N1705      C1707   1.356       .  A
C1707      C1804   1.467       .  S
C1708      C1734   1.476       .  S
N1709      N1710   1.322       .  A
N1709      N1715   1.315       .  A
N1709     Mn1717   2.219       .  S
N1710      C1718   1.360       .  A
N1711      N1713   1.318       .  A
N1711      N1712   1.325       .  A
N1711     Mn1729   2.229       .  S
N1712      C1719   1.358       .  A
N1713      N1714   1.318       .  A
N1713     Mn1717   2.189       .  S
N1714      C1719   1.347       .  A
N1715      N1716   1.318       .  A
N1715     Mn1729   2.188       .  S
N1716      C1718   1.348       .  A
C1718      C1814   1.487       .  S
C1719      C1754   1.474       .  S
N1720      N1721   1.323       .  A
N1720     Mn1728   2.219       .  S
N1722      N1723   1.324       .  A
N1722      N1724   1.315       .  A
N1723      C1732   1.356       .  A
N1724      N1725   1.318       .  A
N1725      C1732   1.349       .  A
N1726      N1727   1.325       .  A
N1726     Mn1729   2.215       .  S
C1732      C1744   1.471       .  S
C1733      C1734   1.397       .  A
C1733      C1738   1.406       .  A
C1733      H1740   1.084       .  S
C1734      C1735   1.400       .  A
C1735      C1736   1.393       .  A
C1735     Br1742   1.916       .  S
C1736      C1737   1.417       .  A
C1736      H1741   1.074       .  S
C1737      C1738   1.440       .  A
C1738     Br1739   1.928       .  S
C1743      C1744   1.391       .  A
C1743      C1748   1.395       .  A
C1743      H1750   1.085       .  S
C1744      C1745   1.402       .  A
C1745      C1746   1.405       .  A
C1745     Br1752   1.917       .  S
C1746      C1747   1.417       .  A
C1746      H1751   1.079       .  S
C1747      C1748   1.438       .  A
C1748     Br1749   1.930       .  S
C1753      C1754   1.400       .  A
C1753      C1758   1.404       .  A
C1753      H1760   1.084       .  S
C1754      C1755   1.398       .  A
C1755      C1756   1.399       .  A
C1755     Br1762   1.918       .  S
C1756      C1757   1.419       .  A
C1756      H1761   1.071       .  S
C1757      C1758   1.431       .  A
C1758     Br1759   1.926       .  S
C1763      C1764   1.421       .  A
C1763      C1768   1.387       .  A
C1763      H1770   1.073       .  S
C1764      C1765   1.430       .  A
C1765      C1766   1.396       .  A
C1765     Br1772   1.926       .  S
C1766      C1767   1.398       .  A
C1766      H1771   1.084       .  S
C1767      C1768   1.398       .  A
C1768     Br1769   1.924       .  S
C1773      C1774   1.420       .  A
C1773      C1778   1.394       .  A
C1773      H1780   1.084       .  S
C1774      C1775   1.443       .  A
C1775      C1776   1.398       .  A
C1775     Br1782   1.929       .  S
C1776      C1777   1.393       .  A
C1776      H1781   1.085       .  S
C1777      C1778   1.405       .  A
C1778     Br1779   1.921       .  S
C1783      C1784   1.396       .  A
C1783      C1788   1.399       .  A
C1783      H1790   1.084       .  S
C1784      C1785   1.403       .  A
C1785      C1786   1.397       .  A
C1785     Br1792   1.921       .  S
C1786      C1787   1.421       .  A
C1786      H1791   1.076       .  S
C1787      C1788   1.436       .  A
C1788     Br1789   1.927       .  S
C1793      C1794   1.415       .  A
C1793      C1798   1.391       .  A
C1793      H1800   1.071       .  S
C1794      C1795   1.429       .  A
C1795      C1796   1.392       .  A
C1795     Br1802   1.922       .  S
C1796      C1797   1.407       .  A
C1796      H1801   1.076       .  S
C1797      C1798   1.423       .  A
C1798     Br1799   1.933       .  S
C1803      C1804   1.394       .  A
C1803      C1808   1.402       .  A
C1803      H1810   1.084       .  S
C1804      C1805   1.400       .  A
C1805      C1806   1.393       .  A
C1805     Br1812   1.913       .  S
C1806      C1807   1.415       .  A
C1806      H1811   1.080       .  S
C1807      C1808   1.437       .  A
C1808     Br1809   1.927       .  S
C1813      C1814   1.391       .  A
C1813      C1818   1.399       .  A
C1813      H1820   1.084       .  S
C1814      C1815   1.407       .  A
C1815      C1816   1.401       .  A
C1815     Br1822   1.923       .  S
C1816      C1817   1.427       .  A
C1816      H1821   1.080       .  S
C1817      C1818   1.435       .  A
C1818     Br1819   1.901       .  S
C1823      C1824   1.421       .  A
C1823      C1828   1.402       .  A
C1823      H1830   1.078       .  S
C1824      C1825   1.439       .  A
C1825      C1826   1.401       .  A
C1825     Br1832   1.933       .  S
C1826      C1827   1.399       .  A
C1826      H1831   1.084       .  S
C1827      C1828   1.406       .  A
C1828     Br1829   1.922       .  S
C1833      C1834   1.418       .  A
C1833      C1838   1.394       .  A
C1833      H1840   1.080       .  S
C1835     Br1842   1.913       .  S
C1836      C1837   1.386       .  A
C1837      C1838   1.400       .  A
C1838     Br1839   1.921       .  S
C1843      C1848   1.405       .  A
C1843      H1850   1.084       .  S
C1844      C1845   1.402       .  A
C1845      C1846   1.398       .  A
C1845     Br1852   1.922       .  S
C1846      C1847   1.429       .  A
C1846      H1851   1.078       .  S
C1848     Br1849   1.921       .  S
C1853      C1854   1.397       .  A
C1853      C1858   1.400       .  A
C1853      H1860   1.084       .  S
C1855      C1856   1.396       .  A
C1855     Br1862   1.922       .  S
C1856      H1861   1.084       .  S
C1857      C1858   1.433       .  A
C1858     Br1859   1.926       .  S
C1863      C1864   1.414       .  A
C1863      C1868   1.395       .  A
C1863      H1870   1.069       .  S
C1864      C1865   1.432       .  A
C1865      C1866   1.396       .  A
C1865     Br1872   1.944       .  S
C1866      C1867   1.408       .  A
C1866      H1871   1.072       .  S
C1867      C1868   1.436       .  A
C1868     Br1869   1.940       .  S
