geometry optimzed in LAMMPS
_audit_creation_date              2020-11-30 
_audit_creation_method            'lammps2cif' 
_symmetry_space_group_name_H-M    'P1' 
_symmetry_Int_Tables_number       1 
_symmetry_cell_setting            triclinic 
loop_ 
_symmetry_equiv_pos_as_xyz 
  x,y,z 
_cell_length_a                    46.27739492 
_cell_length_b                    46.26518869955172 
_cell_length_c                    38.459036561294425 
_cell_angle_alpha                 93.35827917515122 
_cell_angle_beta                  94.1814992802659 
_cell_angle_gamma                 90.42748289404561 
loop_ 
_atom_site_label 
_atom_site_type_symbol 
_atom_site_fract_x 
_atom_site_fract_y 
_atom_site_fract_z 
_atom_site_charge 
N1          N  0.59335456  0.25672851  0.00291928    -0.02500
C2          C  0.56710844  0.24317177  0.00425239     0.00100
C3          C  0.55621320  0.23260092  0.48107635    -0.22800
C4          C  0.58024727  0.23078347  0.46258015    -0.23000
C5          C  0.59967522  0.25151320  0.47750093     0.00000
H6          H  0.53619185  0.22052092  0.47500663     0.13700
H7          H  0.58225315  0.21772518  0.43862743     0.13800
Fe8        Fe  0.80080312  0.34748678  0.21766158     1.65800
Fe9        Fe  0.79945978  0.34026917  0.30470121     1.73200
Fe10       Fe  0.74782726  0.37808506  0.26194847     1.54400
O11         O  0.75942253  0.40320815  0.22191983    -0.80700
O12         O  0.76121462  0.32132757  0.31478208    -0.79000
O13         O  0.80334236  0.39031462  0.20808287    -0.83200
O14         O  0.76058858  0.34239816  0.18844523    -0.78100
O15         O  0.76749222  0.40765320  0.29818988    -0.79900
O16         O  0.80999845  0.30080250  0.28023508    -0.82600
C17         C  0.73419638  0.34070030  0.19603684     0.98200
C18         C  0.78169874  0.40661088  0.20496695     1.05600
O19         O  0.78290580  0.35536253  0.26152691    -1.11600
O20         O  0.83922761  0.35728508  0.29837486    -0.74000
O21         O  0.84303674  0.35107488  0.24130255    -0.77500
O22         O  0.72661781  0.34930252  0.22590446    -0.78200
C23         C  0.85423839  0.35693100  0.27227213     0.97100
O24         O  0.79929123  0.30428035  0.22333287    -0.76200
O25         O  0.79058010  0.37821825  0.33454720    -0.81300
C26         C  0.73686991  0.33317878  0.31656861     0.99700
C27         C  0.78060875  0.40306019  0.32749153     1.05600
O28         O  0.73038833  0.35629466  0.30167495    -0.77000
C29         C  0.80572741  0.28951499  0.24923949     1.03900
N30         N  0.71778437  0.55379338  0.00362093    -0.02500
C31         C  0.70879322  0.58146620  0.00401231     0.00100
C32         C  0.69163926  0.58665422  0.03173936    -0.22800
C33         C  0.69114549  0.56163761  0.04936169    -0.23000
C34         C  0.70782885  0.54190031  0.03171422     0.00000
H35         H  0.68429654  0.60757359  0.04139522     0.13700
H36         H  0.68307243  0.55950626  0.07481211     0.13800
N37         N  0.78869732  0.06217666  0.27697063    -0.02500
C38         C  0.78417207  0.09093712  0.27480905     0.00100
C39         C  0.77700044  0.10326933  0.30658786    -0.22800
C40         C  0.77809611  0.08164411  0.32945473    -0.23000
C41         C  0.78646654  0.05699126  0.31102847     0.00000
H42         H  0.77302654  0.12594199  0.31292393     0.13700
H43         H  0.77428516  0.08389577  0.35691324     0.13800
Fe44       Fe  0.79365183  0.83336893  0.08107583     1.65800
Fe45       Fe  0.78431091  0.83594140  0.48515917     1.73200
Fe46       Fe  0.84516405  0.86695334  0.03787354     1.54400
O47         O  0.83157463  0.89776878  0.07435999    -0.80700
O48         O  0.82067020  0.82593243  0.45905236    -0.79000
O49         O  0.80112902  0.87436080  0.10556163    -0.83200
O50         O  0.83326626  0.81902506  0.10124476    -0.78100
O51         O  0.82680481  0.89595344  0.49305386    -0.79900
O52         O  0.78155058  0.79332657  0.49639533    -0.82600
C53         C  0.85925870  0.82690726  0.09877365     0.98200
C54         C  0.81512818  0.89721098  0.09945314     1.05600
O55         O  0.80810764  0.84578825  0.03732198    -1.11600
O56         O  0.74428809  0.84390765  0.50340314    -0.74000
O57         O  0.75136931  0.84541482  0.06945175    -0.77500
O58         O  0.86611505  0.84468087  0.07696563    -0.78200
C59         C  0.73544517  0.84673616  0.04142449     0.97100
O60         O  0.78468695  0.79165241  0.05917617    -0.76200
O61         O  0.78474213  0.87749477  0.46925706    -0.81300
C62         C  0.84785774  0.82862253  0.46486454     0.99700
C63         C  0.80426781  0.89696923  0.47230524     1.05600
O64         O  0.85944669  0.84178360  0.49241316    -0.77000
C65         C  0.78150110  0.78022049  0.02809053     1.03900
N66         N  0.01673864  0.78543281  0.28140107    -0.02500
C67         C  0.04375479  0.77483938  0.27855281     0.00100
C68         C  0.05621240  0.76921090  0.31124128    -0.22800
C69         C  0.03597460  0.77606764  0.33484162    -0.23000
C70         C  0.01197561  0.78603184  0.31583987     0.00000
H71         H  0.07782230  0.76125697  0.31727478     0.13700
H72         H  0.03836121  0.77379801  0.36274011     0.13800
N73         N  0.32257362  0.06322843  0.23331927    -0.02500
C74         C  0.33316058  0.03600360  0.23322485     0.00100
C75         C  0.33671292  0.02716922  0.26707864    -0.22800
C76         C  0.32764830  0.04945276  0.28855399    -0.23000
C77         C  0.31868284  0.07097886  0.26705639     0.00000
H78         H  0.34284775  0.00586900  0.27501364     0.13700
H79         H  0.32643705  0.04947999  0.31655929     0.13800
Fe80       Fe  0.29853629  0.28520188  0.46960094     1.65800
Fe81       Fe  0.25179358  0.24335234  0.00111348     1.73200
Fe82       Fe  0.30343263  0.28069454  0.05339257     1.54400
O83         O  0.34374179  0.26843944  0.04017026    -0.80700
O84         O  0.23388458  0.26058114  0.04596819    -0.79000
O85         O  0.34129969  0.28398368  0.49121421    -0.83200
O86         O  0.29483227  0.32709852  0.48781583    -0.78100
O87         O  0.29729036  0.23979141  0.07140936    -0.79900
O88         O  0.22462583  0.27467040  0.47476987    -0.82600
C89         C  0.30664193  0.33811252  0.01580970     0.98200
C90         C  0.35718381  0.27368493  0.01366419     1.05600
O91         O  0.28560744  0.26951353  0.00669634    -1.11600
O92         O  0.26129135  0.22399762  0.46074913    -0.74000
O93         O  0.30311254  0.24410924  0.44846778    -0.77500
O94         O  0.31163907  0.32342745  0.04244912    -0.78200
C95         C  0.28369854  0.22459412  0.44342112     0.97100
O96         O  0.25836898  0.28888456  0.44137391    -0.76200
O97         O  0.27263476  0.21228587  0.03008926    -0.81300
C98         C  0.24070340  0.28118326  0.06850600     0.99700
C99         C  0.28660665  0.21535454  0.05976861     1.05600
O100        O  0.26497601  0.29408322  0.07084622    -0.77000
C101        C  0.23180059  0.28627996  0.44755700     1.03900
N102        N  0.08672137  0.35236684  0.25908290    -0.02500
C103        C  0.06058268  0.36577260  0.25923748     0.00100
C104        C  0.05270617  0.37530170  0.22638513    -0.22800
C105        C  0.07387941  0.36703501  0.20518005    -0.23000
C106        C  0.09375841  0.35216552  0.22539148     0.00000
H107        H  0.03275291  0.38589546  0.21822508     0.13700
H108        H  0.07419366  0.37044970  0.17759785     0.13800
N109        N  0.28596186  0.55423991  0.43862043    -0.02500
C110        C  0.28139600  0.52539035  0.43857552     0.00100
C111        C  0.27620622  0.51351857  0.40486017    -0.22800
C112        C  0.27669096  0.53615447  0.38333284    -0.23000
C113        C  0.28206596  0.56091368  0.40476641     0.00000
H114        H  0.27219343  0.49094140  0.39690131     0.13700
H115        H  0.27290294  0.53484901  0.35519914     0.13800
Fe116      Fe  0.29301393  0.78973952  0.22985257     1.65800
Fe117      Fe  0.28717152  0.77832156  0.14122273     1.73200
Fe118      Fe  0.33472146  0.73966625  0.19148371     1.54400
O119        O  0.35646288  0.75899250  0.23571108    -0.80700
O120        O  0.28090248  0.73557999  0.12364726    -0.79000
O121        O  0.33470042  0.80004216  0.24833581    -0.83200
O122        O  0.29308472  0.75194860  0.25675906    -0.78100
O123        O  0.36040884  0.76226611  0.16056387    -0.79900
O124        O  0.24480699  0.77825321  0.15760690    -0.82600
C125        C  0.29850009  0.72527761  0.25055917     0.98200
C126        C  0.35516917  0.78270761  0.25369226     1.05600
O127        O  0.30468120  0.76918396  0.18733878    -1.11600
O128        O  0.29134991  0.82233056  0.15153631    -0.74000
O129        O  0.29185789  0.82964429  0.20900519    -0.77500
O130        O  0.31026726  0.71605426  0.22310741    -0.78200
C131        C  0.29213099  0.83907591  0.17884305     0.97100
O132        O  0.25010954  0.78247914  0.21555371    -0.76200
O133        O  0.32800305  0.77950943  0.12100172    -0.81300
C134        C  0.29821431  0.71458790  0.12509697     0.99700
C135        C  0.35410579  0.77474152  0.13240759     1.05600
O136        O  0.31921598  0.71433901  0.14808968    -0.77000
C137        C  0.23410951  0.77959397  0.18730985     1.03900
N138        N  0.51425001  0.77327728  0.47824669    -0.02500
C139        C  0.54356493  0.77073461  0.48029860     0.00100
C140        C  0.55235943  0.75839398  0.44917147    -0.22800
C141        C  0.52789157  0.75302042  0.42750402    -0.23000
C142        C  0.50489981  0.76246403  0.44582361     0.00000
H143        H  0.57439076  0.75598726  0.44189715     0.13700
H144        H  0.52719495  0.74596420  0.40009977     0.13800
C145        C  0.39061646  0.80122838  0.34452721    -0.10900
C146        C  0.41624912  0.78563906  0.34262261     0.11700
C147        C  0.42381249  0.77292707  0.31023757    -0.02700
C148        C  0.40409660  0.77457919  0.28099504    -0.05500
C149        C  0.37741872  0.78869162  0.28309295    -0.16200
C150        C  0.37128537  0.80387803  0.31499415     0.02700
C151        C  0.43486895  0.78256202  0.37498160     0.12600
C152        C  0.45219022  0.75696101  0.30679623     0.63200
H153        H  0.40890941  0.76368289  0.25639017     0.12700
C154        C  0.34459063  0.82251162  0.31849320     0.55400
H155        H  0.38571638  0.81099191  0.36970072     0.08400
C156        C  0.45497036  0.80441487  0.38799153    -0.05400
C157        C  0.47607198  0.79766598  0.41414847    -0.06100
C158        C  0.47740084  0.77003996  0.42723731    -0.15700
C159        C  0.45569748  0.74915069  0.41662693    -0.01300
C160        C  0.43418255  0.75603504  0.39086917    -0.08800
C161        C  0.45508519  0.83409270  0.37307811     0.65500
H162        H  0.49310820  0.81320616  0.42273824     0.10900
C163        C  0.45638645  0.71934502  0.43098861     0.63900
H164        H  0.41802899  0.73996419  0.38096208     0.08300
F165        F  0.34380704  0.83557167  0.35173172    -0.19200
F166        F  0.31966069  0.80595579  0.31173320    -0.15400
F167        F  0.34477534  0.84422399  0.29527260    -0.18900
F168        F  0.45228068  0.73231391  0.32543797    -0.22300
F169        F  0.47526384  0.77462564  0.31951820    -0.23800
F170        F  0.45634046  0.74863884  0.27236447    -0.17800
F171        F  0.45851876  0.72194381  0.46706126    -0.20200
F172        F  0.48003720  0.70437949  0.41968166    -0.21400
F173        F  0.43157101  0.70339209  0.42020908    -0.18600
F174        F  0.47665897  0.85194420  0.38961711    -0.18700
F175        F  0.42882813  0.84736150  0.37737024    -0.22500
F176        F  0.45959796  0.83142760  0.33790277    -0.24100
C177        C  0.42642136  0.80045358  0.10210120    -0.10900
C178        C  0.42335200  0.79110131  0.06668110     0.11700
C179        C  0.39714239  0.77748942  0.05271731    -0.02700
C180        C  0.37463246  0.77410543  0.07489231    -0.05500
C181        C  0.37800685  0.78238887  0.11067915    -0.16200
C182        C  0.40426613  0.79613647  0.12462521     0.02700
C183        C  0.44934056  0.79202242  0.04621134     0.12600
C184        C  0.39350469  0.76504223  0.01512921     0.63200
H185        H  0.35459362  0.76341519  0.06476513     0.12700
C186        C  0.40889288  0.80664617  0.16283497     0.55400
H187        H  0.44689958  0.81026218  0.11222867     0.08400
C188        C  0.45570720  0.81529239  0.02561621    -0.05400
C189        C  0.47896878  0.81244735  0.00392266    -0.06100
C190        C  0.49661111  0.78784518  0.00372402    -0.15700
C191        C  0.49200817  0.76618196  0.02739196    -0.01300
C192        C  0.46814104  0.76851547  0.04792429    -0.08800
C193        C  0.43860209  0.84314673  0.02739130     0.65500
H194        H  0.48196374  0.82019697  0.48426752     0.10900
C195        C  0.51175036  0.74034187  0.03050651     0.63900
H196        H  0.46351743  0.75163903  0.06513595     0.08300
F197        F  0.43461087  0.82212582  0.16965934    -0.19200
F198        F  0.41000311  0.78338559  0.18384179    -0.15400
F199        F  0.38645195  0.82456962  0.17167390    -0.18900
F200        F  0.41372053  0.74370681  0.00997111    -0.22300
F201        F  0.39730818  0.78642266  0.99224673    -0.23800
F202        F  0.36625353  0.75283457  0.00703290    -0.17800
F203        F  0.50162942  0.72048920  0.05243974    -0.20200
F204        F  0.53880646  0.74972958  0.04427199    -0.21400
F205        F  0.51397488  0.72624120  0.99815560    -0.18600
F206        F  0.44775814  0.86264858  0.00441332    -0.18700
F207        F  0.44231122  0.85592843  0.06083801    -0.22500
F208        F  0.40943594  0.83767514  0.01933126    -0.24100
C209        C  0.29215052  0.68803061  0.33587536    -0.10900
C210        C  0.28399127  0.66011454  0.32306695     0.11700
C211        C  0.27709070  0.65435012  0.28686948    -0.02700
C212        C  0.28134819  0.67649022  0.26410545    -0.05500
C213        C  0.29141718  0.70418674  0.27660750    -0.16200
C214        C  0.29608712  0.71034487  0.31338631     0.02700
C215        C  0.28450010  0.63698306  0.34810967     0.12600
C216        C  0.26568108  0.62484299  0.27249111     0.63200
H217        H  0.27719329  0.67220030  0.23617121     0.12700
C218        C  0.30646952  0.73973903  0.32918976     0.55400
H219        H  0.29640292  0.69184857  0.36388076     0.08400
C220        C  0.31050686  0.62271653  0.35802021    -0.05400
C221        C  0.30909619  0.59896280  0.37891757    -0.06100
C222        C  0.28290704  0.58997045  0.39109821    -0.15700
C223        C  0.25720498  0.60542707  0.38302978    -0.01300
C224        C  0.25853938  0.62902367  0.36173358    -0.08800
C225        C  0.33948427  0.63225903  0.34606463     0.65500
H226        H  0.32828005  0.58631708  0.38446360     0.10900
C227        C  0.22846006  0.59669957  0.39623238     0.63900
H228        H  0.23915682  0.64097298  0.35461978     0.08300
F229        F  0.31175759  0.73991808  0.36512018    -0.19200
F230        F  0.28551175  0.76015853  0.32223339    -0.15400
F231        F  0.33201328  0.74725836  0.31535340    -0.18900
F232        F  0.24043269  0.61825302  0.28762930    -0.22300
F233        F  0.28602119  0.60389277  0.27977085    -0.23800
F234        F  0.25949173  0.62406475  0.23668165    -0.17800
F235        F  0.23028540  0.59968794  0.43222456    -0.20200
F236        F  0.22162109  0.56825543  0.38560401    -0.21400
F237        F  0.20600914  0.61381920  0.38389847    -0.18600
F238        F  0.36181924  0.61463048  0.35755698    -0.18700
F239        F  0.34592643  0.66018824  0.35924693    -0.22500
F240        F  0.33841055  0.63144980  0.31000634    -0.24100
C241        C  0.31675306  0.60981616  0.00532938    -0.10900
C242        C  0.29256339  0.61629947  0.02417985     0.11700
C243        C  0.26630007  0.60071910  0.01594309    -0.02700
C244        C  0.26516878  0.57902483  0.98875371    -0.05500
C245        C  0.28934078  0.57376967  0.46913183    -0.16200
C246        C  0.31577409  0.58848036  0.47959168     0.02700
C247        C  0.29455025  0.64100480  0.05058382     0.12600
C248        C  0.23927413  0.60786565  0.03476648     0.63200
H249        H  0.24533338  0.56689034  0.98174504     0.12700
C250        C  0.34399611  0.58260539  0.46295511     0.55400
H251        H  0.33676086  0.62191084  0.01192275     0.08400
C252        C  0.30539182  0.63816311  0.08550864    -0.05400
C253        C  0.30475815  0.66241581  0.10925962    -0.06100
C254        C  0.29480878  0.68953562  0.09889723    -0.15700
C255        C  0.28533887  0.69251609  0.06320265    -0.01300
C256        C  0.28513175  0.66794492  0.03988430    -0.08800
C257        C  0.31828693  0.60992587  0.09727746     0.65500
H258        H  0.31268644  0.66046647  0.13630448     0.10900
C259        C  0.27665519  0.72145652  0.04905567     0.63900
H260        H  0.27757416  0.66948300  0.01261285     0.08300
F261        F  0.36509522  0.57607476  0.48859082    -0.19200
F262        F  0.35262880  0.60711369  0.44737386    -0.15400
F263        F  0.34202099  0.55962355  0.43827337    -0.18900
F264        F  0.23047089  0.63558715  0.02797989    -0.22300
F265        F  0.24491307  0.60620968  0.07036987    -0.23800
F266        F  0.21659313  0.58898629  0.02402993    -0.17800
F267        F  0.27114671  0.71947315  0.01309754    -0.20200
F268        F  0.29880634  0.74152406  0.05697275    -0.21400
F269        F  0.25173541  0.73116075  0.06346347    -0.18600
F270        F  0.32735222  0.61176223  0.13246450    -0.18700
F271        F  0.34204090  0.60312176  0.07870001    -0.22500
F272        F  0.29803643  0.58774687  0.09154788    -0.24100
C273        C  0.31583430  0.41599639  0.49320038    -0.10900
C274        C  0.30090797  0.43137531  0.51857006     0.11700
C275        C  0.29484814  0.41563806  0.04802037    -0.02700
C276        C  0.29714483  0.38524422  0.04698776    -0.05500
C277        C  0.30963605  0.36996781  0.01927830    -0.16200
C278        C  0.31890699  0.38595847  0.49334436     0.02700
C279        C  0.29350058  0.46150959  0.51154448     0.12600
C280        C  0.28208301  0.43186297  0.07860567     0.63200
H281        H  0.28796562  0.37313735  0.06688346     0.12700
C282        C  0.33619982  0.37046802  0.46584175     0.55400
H283        H  0.32384909  0.42763340  0.47212955     0.08400
C284        C  0.31814491  0.48241805  0.00981781    -0.05400
C285        C  0.31088104  0.50552833  0.98883600    -0.06100
C286        C  0.28251315  0.50826530  0.46966119    -0.15700
C287        C  0.25951020  0.48936246  0.47569238    -0.01300
C288        C  0.26560396  0.46579509  0.49607933    -0.08800
C289        C  0.34918171  0.48073833  0.02506413     0.65500
H290        H  0.32770950  0.52061832  0.98330608     0.10900
C291        C  0.22881891  0.49210498  0.45952870     0.63900
H292        H  0.24903334  0.44925890  0.49736426     0.08300
F293        F  0.35725840  0.39027516  0.95042338    -0.19200
F294        F  0.31787089  0.35503477  0.44137599    -0.15400
F295        F  0.35560586  0.35178535  0.48160418    -0.18900
F296        F  0.25127716  0.44540767  0.56464088    -0.22300
F297        F  0.30133637  0.45327155  0.09243575    -0.23800
F298        F  0.27681216  0.41368916  0.10484267    -0.17800
F299        F  0.22297078  0.46967317  0.43458141    -0.20200
F300        F  0.22419924  0.51812565  0.44417284    -0.21400
F301        F  0.20954899  0.49038134  0.48521575    -0.18600
F302        F  0.35699061  0.50666847  0.04316851    -0.18700
F303        F  0.36726612  0.47601129  0.99825843    -0.22500
F304        F  0.35313333  0.45889124  0.04794219    -0.24100
C305        C  0.18763899  0.32483605  0.11906430    -0.17300
C306        C  0.18672159  0.30893695  0.14894746     0.11700
C307        C  0.20220437  0.28273695  0.15130916    -0.02700
C308        C  0.21873456  0.27369689  0.12356523    -0.05500
C309        C  0.22024347  0.29011088  0.09423129    -0.16200
C310        C  0.20442765  0.31591282  0.09159020     0.02700
C311        C  0.16501648  0.31779728  0.17344840     0.12600
C312        C  0.20173063  0.26340765  0.18190146     0.63200
H313        H  0.23108446  0.25390994  0.12511076     0.12700
C314        C  0.20520923  0.33365972  0.05972879     0.55400
H315        H  0.17472748  0.34420922  0.11730496     0.08400
C316        C  0.16950518  0.34122633  0.19864076    -0.05400
C317        C  0.14596116  0.35069803  0.21722620    -0.06100
C318        C  0.11858300  0.33756338  0.21070032    -0.15700
C319        C  0.11457096  0.31316244  0.18666035    -0.01300
C320        C  0.13815000  0.30363794  0.16852697    -0.08800
C321        C  0.19886185  0.35607335  0.20554845     0.65500
H322        H  0.14835974  0.36924378  0.23579473     0.10900
C323        C  0.08566367  0.29717564  0.17984285     0.63900
H324        H  0.13560222  0.28564438  0.14917538     0.08300
F325        F  0.19895389  0.31610013  0.02974048    -0.19200
F326        F  0.23248719  0.34581522  0.05870608    -0.15400
F327        F  0.18518208  0.35573369  0.06013428    -0.18900
F328        F  0.18794831  0.23754168  0.17070251    -0.22300
F329        F  0.18770800  0.27557450  0.20963096    -0.23800
F330        F  0.22985223  0.25768229  0.19407275    -0.17800
F331        F  0.06473532  0.31513888  0.16587913    -0.20200
F332        F  0.07698673  0.28739597  0.21065012    -0.21400
F333        F  0.08744169  0.27335659  0.15659473    -0.18600
F334        F  0.19849551  0.37823181  0.23133088    -0.18700
F335        F  0.20711714  0.36778486  0.17549041    -0.22500
F336        F  0.21920879  0.33610945  0.21629598    -0.24100
C337        C  0.15955692  0.29960153  0.39415253    -0.10900
C338        C  0.16900164  0.31650130  0.36807279     0.11700
C339        C  0.19858793  0.32465817  0.36900132    -0.02700
C340        C  0.21792067  0.31483555  0.39574852    -0.05500
C341        C  0.20886826  0.29701202  0.42160761    -0.16200
C342        C  0.17881955  0.28924976  0.42066802     0.02700
C343        C  0.14727458  0.32506233  0.33995993     0.12600
C344        C  0.20976479  0.34346590  0.34162451     0.63200
H345        H  0.24052700  0.32108867  0.39646051     0.12700
C346        C  0.16666420  0.26966409  0.44662423     0.55400
H347        H  0.13669470  0.29423896  0.39314200     0.08400
C348        C  0.13675808  0.30533899  0.31225785    -0.05400
C349        C  0.11599490  0.31485870  0.28695208    -0.06100
C350        C  0.10573814  0.34339716  0.28801085    -0.15700
C351        C  0.11762733  0.36350287  0.31462053    -0.01300
C352        C  0.13725477  0.35361493  0.34098504    -0.08800
C353        C  0.14773506  0.27449646  0.30907570     0.65500
H354        H  0.10771548  0.30009530  0.26577947     0.10900
C355        C  0.11120646  0.39558543  0.31424971     0.63900
H356        H  0.14542294  0.36835857  0.36239910     0.08300
F357        F  0.18090218  0.24347443  0.44585912    -0.19200
F358        F  0.13741970  0.26376755  0.43906465    -0.15400
F359        F  0.16989015  0.28290515  0.47985805    -0.18900
F360        F  0.19762694  0.37062737  0.34437397    -0.22300
F361        F  0.20258799  0.33097883  0.30853871    -0.23800
F362        F  0.23958009  0.34695183  0.34558632    -0.17800
F363        F  0.08378729  0.40068944  0.32483023    -0.20200
F364        F  0.11316114  0.40510112  0.28105000    -0.21400
F365        F  0.13068117  0.41181747  0.33661331    -0.18600
F366        F  0.13694731  0.25996185  0.27830196    -0.18700
F367        F  0.13928990  0.25930819  0.33658265    -0.22500
F368        F  0.17763975  0.27466276  0.30950242    -0.24100
C369        C  0.33108058  0.11413556  0.16220241    -0.10900
C370        C  0.30241277  0.12277833  0.15537862     0.11700
C371        C  0.27982276  0.10908184  0.17140374    -0.02700
C372        C  0.28716665  0.08862378  0.19615787    -0.05500
C373        C  0.31603839  0.08084753  0.20411626    -0.16200
C374        C  0.33836489  0.09334457  0.18642326     0.02700
C375        C  0.29712562  0.14657171  0.13155652     0.12600
C376        C  0.24827202  0.11614372  0.16248001     0.63200
H377        H  0.27049419  0.07872910  0.21002892     0.12700
C378        C  0.36975962  0.08500727  0.19320784     0.55400
H379        H  0.34783036  0.12425862  0.14862734     0.08400
C380        C  0.30215846  0.17584134  0.14306423    -0.05400
C381        C  0.29846512  0.19717435  0.11863009    -0.06100
C382        C  0.28995397  0.19039694  0.08303525    -0.15700
C383        C  0.28452290  0.16073536  0.07184959    -0.01300
C384        C  0.28871035  0.13942372  0.09642606    -0.08800
C385        C  0.31157981  0.18448756  0.18102816     0.65500
H386        H  0.30221590  0.21959371  0.12753937     0.10900
C387        C  0.27488874  0.15102358  0.03438772     0.63900
H388        H  0.28555441  0.11671400  0.08844907     0.08300
F389        F  0.38828211  0.10290291  0.17734737    -0.19200
F390        F  0.37338060  0.05707263  0.17975720    -0.15400
F391        F  0.37761093  0.08678906  0.22866383    -0.18900
F392        F  0.24117581  0.10942388  0.12738696    -0.22300
F393        F  0.24361051  0.14527479  0.16974350    -0.23800
F394        F  0.22985570  0.10051345  0.18132986    -0.17800
F395        F  0.27259325  0.12117464  0.02948851    -0.20200
F396        F  0.29491159  0.16025192  0.01249855    -0.21400
F397        F  0.24800058  0.16227791  0.02519290    -0.18600
F398        F  0.31348382  0.21425238  0.18717091    -0.18700
F399        F  0.33851679  0.17318777  0.18979573    -0.22500
F400        F  0.29184036  0.17406759  0.20267376    -0.24100
C401        C  0.30763804  0.16227133  0.38439270    -0.10900
C402        C  0.29065312  0.16703585  0.35364383     0.11700
C403        C  0.27032675  0.18963563  0.35306889    -0.02700
C404        C  0.26855114  0.20764062  0.38353985    -0.05500
C405        C  0.28612877  0.20330182  0.41410806    -0.16200
C406        C  0.30606976  0.18024949  0.41472772     0.02700
C407        C  0.29366083  0.14628281  0.32362499     0.12600
C408        C  0.25027548  0.19421674  0.32084909     0.63200
H409        H  0.25341233  0.22541568  0.38375206     0.12700
C410        C  0.32572949  0.17301893  0.44625129     0.55400
H411        H  0.32250249  0.14421896  0.38458653     0.08400
C412        C  0.31750070  0.14748753  0.30261587    -0.05400
C413        C  0.32299602  0.12322307  0.28052345    -0.06100
C414        C  0.30589092  0.09811368  0.27992709    -0.15700
C415        C  0.28042256  0.09808636  0.29817711    -0.01300
C416        C  0.27497917  0.12219780  0.32027874    -0.08800
C417        C  0.33809113  0.17338139  0.30520384     0.65500
H418        H  0.34222023  0.12267883  0.26605275     0.10900
C419        C  0.25914357  0.07281892  0.29648383     0.63900
H420        H  0.25679651  0.12159610  0.33651634     0.08300
F421        F  0.35416299  0.17259919  0.43736561    -0.19200
F422        F  0.31839552  0.14579781  0.45613486    -0.15400
F423        F  0.32397053  0.19250171  0.47457306    -0.18900
F424        F  0.23161851  0.17074560  0.31437148    -0.22300
F425        F  0.26610931  0.19706397  0.29212390    -0.23800
F426        F  0.23382530  0.21888293  0.32503991    -0.17800
F427        F  0.26094977  0.06004011  0.32817669    -0.20200
F428        F  0.26404327  0.05202760  0.27032850    -0.21400
F429        F  0.23128751  0.08286574  0.29003965    -0.18600
F430        F  0.35899046  0.17041134  0.28128497    -0.18700
F431        F  0.35205378  0.17639347  0.33823967    -0.22500
F432        F  0.32290985  0.19831119  0.29871411    -0.24100
C433        C  0.34433959  0.96597674  0.18441849    -0.10900
C434        C  0.31592987  0.96054411  0.17028139     0.11700
C435        C  0.29615661  0.98369836  0.16816411    -0.02700
C436        C  0.30438832  0.01057992  0.18478299    -0.05500
C437        C  0.33157308  0.01472440  0.20313133    -0.16200
C438        C  0.35274664  0.99295369  0.20034575     0.02700
C439        C  0.30615243  0.92997481  0.16803663     0.12600
C440        C  0.26553478  0.98056506  0.15140688     0.63200
H441        H  0.28813856  0.02721547  0.18678437     0.12700
C442        C  0.38379736  0.99625181  0.21581229     0.55400
H443        H  0.35939427  0.94819339  0.18630743     0.08400
C444        C  0.31567770  0.90929026  0.14310724    -0.05400
C445        C  0.30949226  0.87991945  0.14688690    -0.06100
C446        C  0.29478301  0.87073533  0.17518043    -0.15700
C447        C  0.28408939  0.89181713  0.19929888    -0.01300
C448        C  0.28988605  0.92116061  0.19496995    -0.08800
C449        C  0.33253950  0.91821110  0.11297507     0.65500
H450        H  0.31744551  0.86376433  0.12854729     0.10900
C451        C  0.26712281  0.88385154  0.22987508     0.63900
H452        H  0.28309721  0.93756549  0.21384322     0.08300
F453        F  0.40231248  0.99062147  0.18963261    -0.19200
F454        F  0.38891602  0.97652749  0.24115583    -0.15400
F455        F  0.39022424  0.02367775  0.23064468    -0.18900
F456        F  0.24606499  0.98389055  0.17695100    -0.22300
F457        F  0.26045541  0.95405647  0.13340937    -0.23800
F458        F  0.26070225  0.00192271  0.12800031    -0.17800
F459        F  0.28535326  0.87132761  0.25469595    -0.20200
F460        F  0.24482547  0.86475850  0.21839183    -0.21400
F461        F  0.25493918  0.90790094  0.24596364    -0.18600
F462        F  0.33624230  0.89518737  0.08913317    -0.18700
F463        F  0.35966821  0.92858828  0.12528248    -0.22500
F464        F  0.31780656  0.93964488  0.09566754    -0.24100
C465        C  0.09958188  0.74781048  0.21966895    -0.10900
C466        C  0.11105952  0.77440897  0.21116251     0.11700
C467        C  0.09436773  0.79973983  0.21518771    -0.02700
C468        C  0.06886966  0.79832831  0.23299146    -0.05500
C469        C  0.06000162  0.77248121  0.24660963    -0.16200
C470        C  0.07392554  0.74640135  0.23694182     0.02700
C471        C  0.14228601  0.77577518  0.20439729     0.12600
C472        C  0.10464029  0.82850971  0.20325234     0.63200
H473        H  0.05779887  0.81791449  0.23964751     0.12700
C474        C  0.06354715  0.71703880  0.24668168     0.55400
H475        H  0.11191873  0.72829731  0.21525685     0.08400
C476        C  0.16379088  0.77658384  0.23248670    -0.05400
C477        C  0.19298711  0.77713382  0.22513253    -0.06100
C478        C  0.20191176  0.77797031  0.19083491    -0.15700
C479        C  0.18006334  0.77825957  0.16266573    -0.01300
C480        C  0.15058224  0.77642705  0.17007922    -0.08800
C481        C  0.15598869  0.77704988  0.27035824     0.65500
H482        H  0.20920524  0.77700332  0.24687596     0.10900
C483        C  0.18732671  0.78119165  0.12515613     0.63900
H484        H  0.13358735  0.77582122  0.14908984     0.08300
F485        F  0.08156350  0.70759031  0.27386299    -0.19200
F486        F  0.06425845  0.69735503  0.21824315    -0.15400
F487        F  0.03540469  0.71782142  0.25656812    -0.18900
F488        F  0.10917491  0.82576891  0.16809148    -0.22300
F489        F  0.13026196  0.83706453  0.22187182    -0.23800
F490        F  0.08446165  0.85006056  0.20802759    -0.17800
F491        F  0.16267191  0.78277344  0.10271016    -0.20200
F492        F  0.20291371  0.75747639  0.11393393    -0.21400
F493        F  0.20336420  0.80628532  0.12287760    -0.18600
F494        F  0.18020906  0.78029888  0.29365971    -0.18700
F495        F  0.14227747  0.75142316  0.27653340    -0.22500
F496        F  0.13779192  0.79990233  0.27730709    -0.24100
C497        C  0.65240344  0.84786253  0.50511957    -0.10900
C498        C  0.64311249  0.83791558  0.04165542     0.11700
C499        C  0.66112818  0.83114494  0.07132058    -0.02700
C500        C  0.69110485  0.83617632  0.07135321    -0.05500
C501        C  0.70344742  0.84872320  0.04331682    -0.16200
C502        C  0.68219034  0.85391841  0.50421147     0.02700
C503        C  0.61295282  0.82134203  0.52952695     0.12600
C504        C  0.64983101  0.81599819  0.10162849     0.63200
H505        H  0.70516076  0.82851597  0.09269992     0.12700
C506        C  0.69277931  0.86541775  0.47111239     0.55400
H507        H  0.63829853  0.84858783  0.48135455     0.08400
C508        C  0.58570817  0.83434814  0.52263210    -0.05400
C509        C  0.56170333  0.81638765  0.51100296    -0.06100
C510        C  0.56457380  0.78620632  0.50582397    -0.15700
C511        C  0.59123906  0.77323882  0.51642195    -0.01300
C512        C  0.61492091  0.79112834  0.52797156    -0.08800
C513        C  0.58226540  0.86691434  0.52688470     0.65500
H514        H  0.54131473  0.82607132  0.50271158     0.10900
C515        C  0.59660800  0.74083211  0.51455214     0.63900
H516        H  0.63619441  0.78186455  0.02991375     0.08300
F517        F  0.71226416  0.88798461  0.47954897    -0.19200
F518        F  0.67017140  0.87595208  0.45005120    -0.15400
F519        F  0.70582025  0.84356217  0.45201780    -0.18900
F520        F  0.65644747  0.78690400  0.09851883    -0.22300
F521        F  0.62017184  0.81880621  0.10293107    -0.23800
F522        F  0.66277686  0.82787273  0.13283220    -0.17800
F523        F  0.61726596  0.73447449  0.49109589    -0.20200
F524        F  0.57210266  0.72439012  0.50443415    -0.21400
F525        F  0.60516132  0.73248651  0.03410512    -0.18600
F526        F  0.55353228  0.87485606  0.52202388    -0.18700
F527        F  0.59766554  0.88039246  0.50284063    -0.22500
F528        F  0.59892687  0.87666129  0.06990842    -0.24100
C529        C  0.96616839  0.82194769  0.21724383    -0.10900
C530        C  0.94976305  0.79817849  0.20238054     0.11700
C531        C  0.95648510  0.76998176  0.21254235    -0.02700
C532        C  0.97955151  0.76659113  0.23779980    -0.05500
C533        C  0.99551324  0.79043674  0.25332842    -0.16200
C534        C  0.98889741  0.81863462  0.24287132     0.02700
C535        C  0.92549305  0.80367749  0.17641758     0.12600
C536        C  0.93887121  0.74386582  0.19728414     0.63200
H537        H  0.98487616  0.74530241  0.24656319     0.12700
C538        C  0.00477046  0.84588051  0.25771438     0.55400
H539        H  0.96079415  0.84345692  0.20909445     0.08400
C540        C  0.89753069  0.81173010  0.18602230    -0.05400
C541        C  0.87626499  0.81772931  0.15951716    -0.06100
C542        C  0.88216228  0.81673507  0.12412505    -0.15700
C543        C  0.91001346  0.80813078  0.11455445    -0.01300
C544        C  0.93123225  0.80180443  0.14105865    -0.08800
C545        C  0.88881101  0.81474496  0.22344751     0.65500
H546        H  0.85498624  0.82440224  0.16677167     0.10900
C547        C  0.91727461  0.80502525  0.07664094     0.63900
H548        H  0.95281405  0.79572885  0.13444285     0.08300
F549        F  0.02724031  0.84057990  0.28193498    -0.19200
F550        F  0.98548044  0.86410598  0.27360597    -0.15400
F551        F  0.01611949  0.85983637  0.23083530    -0.18900
F552        F  0.94078879  0.74109177  0.16154292    -0.22300
F553        F  0.91015656  0.74728291  0.20424091    -0.23800
F554        F  0.94859027  0.71848166  0.21124842    -0.17800
F555        F  0.91876083  0.83198661  0.06314280    -0.20200
F556        F  0.89623719  0.78832194  0.05730851    -0.21400
F557        F  0.94369685  0.79173004  0.07310847    -0.18600
F558        F  0.86628856  0.79562552  0.22718235    -0.18700
F559        F  0.87938690  0.84264740  0.23047233    -0.22500
F560        F  0.91095591  0.80922057  0.24815546    -0.24100
C561        C  0.95526630  0.82078338  0.37123460    -0.10900
C562        C  0.93370033  0.79924492  0.36780151     0.11700
C563        C  0.93631970  0.77512803  0.34389157    -0.02700
C564        C  0.96158359  0.77275544  0.32556028    -0.05500
C565        C  0.98430138  0.79320849  0.33123318    -0.16200
C566        C  0.98112120  0.81774860  0.35458231     0.02700
C567        C  0.91005341  0.80199181  0.39191332     0.12600
C568        C  0.91308292  0.75162578  0.33872975     0.63200
H569        H  0.96449338  0.75400207  0.30801085     0.12700
C570        C  0.00407989  0.84104375  0.36429370     0.55400
H571        H  0.95265655  0.83944780  0.38913305     0.08400
C572        C  0.91528150  0.79764268  0.42797969    -0.05400
C573        C  0.89384341  0.80550886  0.45065660    -0.06100
C574        C  0.86709099  0.81654207  0.43837962    -0.15700
C575        C  0.86072553  0.81798468  0.40168534    -0.01300
C576        C  0.88285688  0.81154579  0.37921349    -0.08800
C577        C  0.94367103  0.78534985  0.44267050     0.65500
H578        H  0.89815921  0.80375426  0.47853423     0.10900
C579        C  0.83114348  0.82667643  0.38605815     0.63900
H580        H  0.87936639  0.81457072  0.35151350     0.08300
F581        F  0.01049091  0.84231002  0.40006826    -0.19200
F582        F  0.99330104  0.86753371  0.35497460    -0.15400
F583        F  0.02958969  0.83645692  0.34855422    -0.18900
F584        F  0.88745337  0.76311802  0.32528038    -0.22300
F585        F  0.90860607  0.74012703  0.37031127    -0.23800
F586        F  0.92072519  0.72926966  0.31579469    -0.17800
F587        F  0.83040251  0.82767479  0.35008934    -0.20200
F588        F  0.82398393  0.85374454  0.39957776    -0.21400
F589        F  0.81045879  0.80668970  0.39356325    -0.18600
F590        F  0.94235736  0.77863770  0.47713713    -0.18700
F591        F  0.96586557  0.80527478  0.44123512    -0.22500
F592        F  0.95004152  0.76024705  0.42357724    -0.24100
C593        C  0.77717700  0.01276590  0.19546698    -0.10900
C594        C  0.80281118  0.99692294  0.19710940     0.11700
C595        C  0.82471769  0.00411325  0.22391550    -0.02700
C596        C  0.81927117  0.02587775  0.24961265    -0.05500
C597        C  0.79312378  0.04098017  0.24891560    -0.16200
C598        C  0.77137275  0.03403335  0.22153510     0.02700
C599        C  0.80522743  0.97161727  0.17185012     0.12600
C600        C  0.85364862  0.98887039  0.22514702     0.63200
H601        H  0.83554553  0.03135447  0.27093060     0.12700
C602        C  0.74125510  0.04690505  0.21916353     0.55400
H603        H  0.76065425  0.00718507  0.17441822     0.08400
C604        C  0.79366272  0.94420295  0.17803462    -0.05400
C605        C  0.79795232  0.92073005  0.15410404    -0.06100
C606        C  0.81206142  0.92390971  0.12318309    -0.15700
C607        C  0.82182453  0.95221936  0.11597121    -0.01300
C608        C  0.81860829  0.97537743  0.14093694    -0.08800
C609        C  0.77614535  0.93998852  0.20937861     0.65500
H610        H  0.78984468  0.89957718  0.15945109     0.10900
C611        C  0.83483907  0.95869390  0.08202314     0.63900
H612        H  0.82644343  0.99688317  0.13654052     0.08300
F613        F  0.72077635  0.02487690  0.21325035    -0.19200
F614        F  0.73878002  0.06460716  0.19136510    -0.15400
F615        F  0.73474563  0.06257401  0.24915494    -0.18900
F616        F  0.86698860  0.99295826  0.19476605    -0.22300
F617        F  0.84956597  0.95955289  0.22834276    -0.23800
F618        F  0.87206526  0.99947468  0.25304781    -0.17800
F619        F  0.81598944  0.94947459  0.05393331    -0.20200
F620        F  0.86112036  0.94492738  0.07985997    -0.21400
F621        F  0.83979165  0.98803918  0.07958717    -0.18600
F622        F  0.76759565  0.91141981  0.21122874    -0.18700
F623        F  0.75144103  0.95658847  0.20688087    -0.22500
F624        F  0.79232329  0.94827590  0.24002266    -0.24100
C625        C  0.81605361  0.00386728  0.37491234    -0.10900
C626        C  0.79617951  0.98102599  0.36810091     0.11700
C627        C  0.77515934  0.98150225  0.33949328    -0.02700
C628        C  0.77395314  0.00601547  0.31942143    -0.05500
C629        C  0.79293846  0.02958600  0.32757539    -0.16200
C630        C  0.81531978  0.02800170  0.35465388     0.02700
C631        C  0.79731237  0.95813038  0.39331165     0.12600
C632        C  0.75328629  0.95703102  0.33134360     0.63200
H633        H  0.75712874  0.00771620  0.29859126     0.12700
C634        C  0.83892615  0.05107747  0.36177084     0.55400
H635        H  0.83192069  0.00281066  0.39694976     0.08400
C636        C  0.81943745  0.93721325  0.39389077    -0.05400
C637        C  0.82168618  0.91883739  0.42165711    -0.06100
C638        C  0.80212019  0.92015274  0.44786744    -0.15700
C639        C  0.78038140  0.94152216  0.44775280    -0.01300
C640        C  0.77850416  0.96032641  0.42033707    -0.08800
C641        C  0.84046577  0.93419359  0.36531753     0.65500
H642        H  0.83869791  0.90293037  0.42294609     0.10900
C643        C  0.75974668  0.94659006  0.47635650     0.63900
H644        H  0.76253019  0.97736199  0.42037246     0.08300
F645        F  0.86009524  0.04315988  0.38663935    -0.19200
F646        F  0.82754133  0.07695328  0.37380803    -0.15400
F647        F  0.85223744  0.05503586  0.33143273    -0.18900
F648        F  0.73451581  0.95654108  0.35765542    -0.22300
F649        F  0.76726879  0.93079011  0.32880085    -0.23800
F650        F  0.73715843  0.96026853  0.30007044    -0.17800
F651        F  0.76471635  0.97405058  0.49200626    -0.20200
F652        F  0.76280393  0.92694415  0.50202928    -0.21400
F653        F  0.73151288  0.94489265  0.46184356    -0.18600
F654        F  0.85850897  0.91071267  0.36950270    -0.18700
F655        F  0.85765701  0.95876880  0.36576825    -0.22500
F656        F  0.82532099  0.93027995  0.33304475    -0.24100
C657        C  0.74776312  0.70536948  0.03043141    -0.10900
C658        C  0.76070278  0.69073854  0.00276616     0.11700
C659        C  0.78312844  0.70354927  0.48270431    -0.02700
C660        C  0.78973412  0.73280969  0.49199802    -0.05500
C661        C  0.77507031  0.74895011  0.02192553    -0.16200
C662        C  0.75392089  0.73464263  0.03980980     0.02700
C663        C  0.75266819  0.66003251  0.99511519     0.12600
C664        C  0.79567957  0.68860645  0.45104431     0.63200
H665        H  0.80453756  0.74444224  0.47708853     0.12700
C666        C  0.73653124  0.75045536  0.06691836     0.55400
H667        H  0.73229754  0.69360240  0.04429101     0.08400
C668        C  0.76912865  0.63643087  0.51532248    -0.05400
C669        C  0.75661799  0.60861237  0.51261265    -0.06100
C670        C  0.72652711  0.60517750  0.99287218    -0.15700
C671        C  0.71473683  0.62603911  0.97083790    -0.01300
C672        C  0.72817168  0.65345711  0.97220049    -0.08800
C673        C  0.79443628  0.64332832  0.54208323     0.65500
H674        H  0.76488208  0.59246393  0.52987830     0.10900
C675        C  0.68776500  0.61930920  0.94691496     0.63900
H676        H  0.71851142  0.67052901  0.95734419     0.08300
F677        F  0.71453467  0.73320667  0.07731972    -0.19200
F678        F  0.72389858  0.77465546  0.05302736    -0.15400
F679        F  0.75439644  0.75878978  0.09620690    -0.18900
F680        F  0.77349009  0.68068771  0.42622362    -0.22300
F681        F  0.81048610  0.66408382  0.46032791    -0.23800
F682        F  0.81472031  0.70651832  0.43601482    -0.17800
F683        F  0.66457189  0.61379631  0.96635779    -0.20200
F684        F  0.69258942  0.59515021  0.92527997    -0.21400
F685        F  0.68056134  0.64204566  0.92621170    -0.18600
F686        F  0.80586618  0.61849979  0.55580860    -0.18700
F687        F  0.78524719  0.66099714  0.56924524    -0.22500
F688        F  0.81638886  0.65733202  0.52703246    -0.24100
C689        C  0.99468503  0.34212139  0.29878976    -0.10900
C690        C  0.97926805  0.36769742  0.29437296     0.11700
C691        C  0.99446392  0.39407602  0.29248229    -0.02700
C692        C  0.02452138  0.39309711  0.28965362    -0.05500
C693        C  0.03903509  0.36655725  0.28613328    -0.16200
C694        C  0.02459586  0.34097476  0.29454484     0.02700
C695        C  0.94734194  0.36564224  0.28810640     0.12600
C696        C  0.97873453  0.42270113  0.29051916     0.63200
H697        H  0.03602744  0.41264912  0.28438059     0.12700
C698        C  0.03997484  0.31238534  0.29743053     0.55400
H699        H  0.98258467  0.32255716  0.30250567     0.08400
C700        C  0.93399414  0.35563840  0.25525526    -0.05400
C701        C  0.90361676  0.35382019  0.25111717    -0.06100
C702        C  0.88617314  0.36212131  0.27838883    -0.15700
C703        C  0.89987582  0.37365933  0.31087241    -0.01300
C704        C  0.93030570  0.37433928  0.31520874    -0.08800
C705        C  0.95176970  0.34680248  0.22469185     0.65500
H706        H  0.89330046  0.34520324  0.22643430     0.10900
C707        C  0.88312466  0.38572802  0.34101647     0.63900
H708        H  0.94125273  0.38171761  0.34007588     0.08300
F709        F  0.05069655  0.30386005  0.26600270    -0.19200
F710        F  0.02165770  0.29059194  0.30618806    -0.15400
F711        F  0.06228551  0.31536131  0.32330680    -0.18900
F712        F  0.96460119  0.42829772  0.32058111    -0.22300
F713        F  0.95868890  0.42156378  0.26196898    -0.23800
F714        F  0.99761123  0.44557990  0.28728960    -0.17800
F715        F  0.86969615  0.36342059  0.35632410    -0.20200
F716        F  0.86268488  0.40519778  0.32906861    -0.21400
F717        F  0.90108049  0.40035687  0.36671118    -0.18600
F718        F  0.93441674  0.34033723  0.19431964    -0.18700
F719        F  0.96774689  0.32251411  0.23210227    -0.22500
F720        F  0.97038265  0.36912022  0.21843604    -0.24100
C721        C  0.82263357  0.15021455  0.23844421    -0.10900
C722        C  0.79826955  0.16573400  0.22743154     0.11700
C723        C  0.77168752  0.15121132  0.21832209    -0.02700
C724        C  0.76853773  0.12288552  0.22884630    -0.05500
C725        C  0.79168324  0.10909050  0.24654765    -0.16200
C726        C  0.81981553  0.12169316  0.24810157     0.02700
C727        C  0.80002655  0.19740856  0.23294447     0.12600
C728        C  0.74666455  0.16624101  0.19944109     0.63200
H729        H  0.74717682  0.11308806  0.22743822     0.12700
C730        C  0.84620969  0.10642370  0.26337462     0.55400
H731        H  0.84314269  0.16169392  0.24336959     0.08400
C732        C  0.79337508  0.21123947  0.26521942    -0.05400
C733        C  0.79656305  0.24132260  0.26967487    -0.06100
C734        C  0.80637844  0.25774800  0.24334405    -0.15700
C735        C  0.81459637  0.24359316  0.21174585    -0.01300
C736        C  0.81105280  0.21341792  0.20713240    -0.08800
C737        C  0.78343078  0.19435735  0.29512388     0.65500
H738        H  0.79079737  0.25240431  0.29380073     0.10900
C739        C  0.82762232  0.25982288  0.18328099     0.63900
H740        H  0.81680033  0.20196484  0.18320201     0.08300
F741        F  0.84293101  0.10127599  0.29783456    -0.19200
F742        F  0.87131608  0.12270466  0.26221168    -0.15400
F743        F  0.84961625  0.08056331  0.24443851    -0.18900
F744        F  0.75578226  0.17670609  0.16905919    -0.22300
F745        F  0.73710722  0.18913383  0.22012630    -0.23800
F746        F  0.72356245  0.14741853  0.19052211    -0.17800
F747        F  0.84914229  0.27869409  0.19782036    -0.20200
F748        F  0.80632121  0.27512817  0.16545034    -0.21400
F749        F  0.83996526  0.24113071  0.15926811    -0.18600
F750        F  0.77836772  0.21235287  0.32404937    -0.18700
F751        F  0.80450827  0.17493742  0.30525356    -0.22500
F752        F  0.75799083  0.17942265  0.28488538    -0.24100
C753        C  0.78085344  0.44288120  0.11916508    -0.10900
C754        C  0.76370264  0.46679194  0.12696393     0.11700
C755        C  0.75643794  0.47323770  0.16164180    -0.02700
C756        C  0.76549580  0.45432490  0.18729832    -0.05500
C757        C  0.78084050  0.42910123  0.17917792    -0.16200
C758        C  0.78990696  0.42379735  0.14477829     0.02700
C759        C  0.75143529  0.48333096  0.09787606     0.12600
C760        C  0.73792417  0.49911034  0.17114721     0.63200
H761        H  0.75901742  0.45815694  0.21377158     0.12700
C762        C  0.80762103  0.39753818  0.13434461     0.55400
H763        H  0.78600486  0.43862468  0.09223490     0.08400
C764        C  0.76697858  0.50596657  0.08438508    -0.05400
C765        C  0.75214451  0.52347841  0.06065602    -0.06100
C766        C  0.72282385  0.51842787  0.04959610    -0.15700
C767        C  0.70814823  0.49412880  0.06074735    -0.01300
C768        C  0.72293208  0.47677592  0.08470649    -0.08800
C769        C  0.79866018  0.51211718  0.09584329     0.65500
H770        H  0.76286479  0.54249191  0.05238263     0.10900
C771        C  0.67707568  0.48577230  0.04891927     0.63900
H772        H  0.71169284  0.45860050  0.09446128     0.08300
F773        F  0.83395178  0.39830558  0.15386879    -0.19200
F774        F  0.81330816  0.39678559  0.09943562    -0.15400
F775        F  0.79274375  0.37236978  0.13976130    -0.18900
F776        F  0.71049091  0.49559936  0.15461630    -0.22300
F777        F  0.75031069  0.52422636  0.16094585    -0.23800
F778        F  0.73511451  0.50234249  0.20675885    -0.17800
F779        F  0.67641413  0.45792522  0.03366486    -0.20200
F780        F  0.66447375  0.50377398  0.02488283    -0.21400
F781        F  0.66066938  0.48646790  0.07760194    -0.18600
F782        F  0.80968463  0.53484285  0.07878759    -0.18700
F783        F  0.81494952  0.48791591  0.08840339    -0.22500
F784        F  0.80180740  0.51915041  0.13134848    -0.24100
C785        C  0.77937871  0.47812268  0.37371887    -0.10900
C786        C  0.77282505  0.47103353  0.40718874     0.11700
C787        C  0.77314123  0.44168080  0.41581153    -0.02700
C788        C  0.77830142  0.42011278  0.38965823    -0.05500
C789        C  0.78232453  0.42703081  0.35518558    -0.16200
C790        C  0.78456984  0.45662821  0.34756185     0.02700
C791        C  0.76103578  0.49406566  0.43054311     0.12600
C792        C  0.76593637  0.43304985  0.45174674     0.63200
H793        H  0.77685810  0.39751709  0.39535128     0.12700
C794        C  0.79128619  0.46584979  0.31174597     0.55400
H795        H  0.77871124  0.50066763  0.36754224     0.08400
C796        C  0.77860456  0.51408883  0.45207726    -0.05400
C797        C  0.76509712  0.53378838  0.47502995    -0.06100
C798        C  0.73483121  0.53440346  0.47599498    -0.15700
C799        C  0.71736498  0.51614560  0.45190324    -0.01300
C800        C  0.73087359  0.49598703  0.43006582    -0.08800
C801        C  0.81128161  0.51445404  0.45085437     0.65500
H802        H  0.77803802  0.54838706  0.49293408     0.10900
C803        C  0.68083899  0.52254399  0.94470327     0.63900
H804        H  0.71763141  0.48134092  0.41236239     0.08300
F805        F  0.80102520  0.49429849  0.31328864    -0.19200
F806        F  0.76654180  0.46351701  0.28928968    -0.15400
F807        F  0.81275742  0.44868989  0.29849414    -0.18900
F808        F  0.73691075  0.43775862  0.45600086    -0.22300
F809        F  0.78236397  0.44923507  0.47744794    -0.23800
F810        F  0.77149124  0.40409995  0.45629877    -0.17800
F811        F  0.67565481  0.52031139  0.41323971    -0.20200
F812        F  0.66890646  0.54348411  0.96611866    -0.21400
F813        F  0.66877183  0.49602997  0.95072392    -0.18600
F814        F  0.82427030  0.53560222  0.47390999    -0.18700
F815        F  0.81841701  0.52004541  0.41759922    -0.22500
F816        F  0.82241857  0.48795407  0.45942338    -0.24100
C817        C  0.66218566  0.31944915  0.14391421    -0.10900
C818        C  0.67193485  0.30178592  0.11650653     0.11700
C819        C  0.70208225  0.29800417  0.11415602    -0.02700
C820        C  0.72141993  0.31058678  0.14095701    -0.05500
C821        C  0.71180048  0.32798691  0.16907524    -0.16200
C822        C  0.68144915  0.33319561  0.16993337     0.02700
C823        C  0.64999435  0.29040963  0.08868466     0.12600
C824        C  0.71383448  0.28123534  0.08315119     0.63200
H825        H  0.74442397  0.30706276  0.13985341     0.12700
C826        C  0.66903750  0.35407317  0.19689198     0.55400
H827        H  0.63908113  0.32284286  0.14423838     0.08400
C828        C  0.63347897  0.26488734  0.09139103    -0.05400
C829        C  0.61307098  0.25600842  0.06365534    -0.06100
C830        C  0.60923093  0.27128273  0.03299204    -0.15700
C831        C  0.62532397  0.29747859  0.03127131    -0.01300
C832        C  0.64486557  0.30669274  0.05947302    -0.08800
C833        C  0.63808198  0.24667989  0.12286897     0.65500
H834        H  0.60118238  0.23586828  0.06464828     0.10900
C835        C  0.62406451  0.31660225  0.00073337     0.63900
H836        H  0.65710175  0.32666899  0.05823460     0.08300
F837        F  0.63978148  0.35875271  0.18936258    -0.19200
F838        F  0.68310618  0.38061909  0.19749935    -0.15400
F839        F  0.67220157  0.34302192  0.22956229    -0.18900
F840        F  0.70565389  0.29441696  0.05267790    -0.22300
F841        F  0.70316222  0.25319103  0.08068232    -0.23800
F842        F  0.74378944  0.28004040  0.08609919    -0.17800
F843        F  0.61708208  0.34448841  0.01190344    -0.20200
F844        F  0.60414679  0.30753794  0.97412104    -0.21400
F845        F  0.65104215  0.31711021  0.98787600    -0.18600
F846        F  0.62000671  0.22254598  0.12016870    -0.18700
F847        F  0.63252990  0.26294385  0.15288391    -0.22500
F848        F  0.66637022  0.23726503  0.12590629    -0.24100
C849        C  0.68460034  0.28237414  0.35476247    -0.10900
C850        C  0.68031060  0.29758870  0.38657947     0.11700
C851        C  0.69468679  0.32447995  0.39519198    -0.02700
C852        C  0.71225439  0.33578278  0.37088056    -0.05500
C853        C  0.71631989  0.32069378  0.33903309    -0.16200
C854        C  0.70258520  0.29352628  0.33068584     0.02700
C855        C  0.65962076  0.28539199  0.40965982     0.12600
C856        C  0.69152643  0.34110475  0.42985226     0.63200
H857        H  0.72348352  0.35631367  0.37679783     0.12700
C858        C  0.70674015  0.27672148  0.29638479     0.55400
H859        H  0.67359355  0.26173701  0.34892910     0.08400
C860        C  0.62952254  0.29005293  0.40418864    -0.05400
C861        C  0.61109762  0.27904489  0.42765994    -0.06100
C862        C  0.62164884  0.26319851  0.45582714    -0.15700
C863        C  0.65125821  0.25584509  0.45905278    -0.01300
C864        C  0.67011436  0.26796988  0.43645801    -0.08800
C865        C  0.61677498  0.30562814  0.37299805     0.65500
H866        H  0.58795667  0.28249419  0.42408409     0.10900
C867        C  0.66225794  0.23383891  0.48437745     0.63900
H868        H  0.69307314  0.26342247  0.43893633     0.08300
F869        F  0.68937766  0.25209440  0.29196184    -0.19200
F870        F  0.73527683  0.26832783  0.29548956    -0.15400
F871        F  0.69979273  0.29394424  0.26884161    -0.18900
F872        F  0.70059020  0.32416733  0.45693498    -0.22300
F873        F  0.66289025  0.34848555  0.43262660    -0.23800
F874        F  0.70797623  0.36637595  0.43321917    -0.17800
F875        F  0.69170642  0.22934137  0.48303492    -0.20200
F876        F  0.66232949  0.20425408  0.98525616    -0.21400
F877        F  0.66472010  0.24375398  0.02229085    -0.18600
F878        F  0.58723258  0.30961894  0.37421748    -0.18700
F879        F  0.62130814  0.28941180  0.34257609    -0.22500
F880        F  0.62971170  0.33254742  0.37197626    -0.24100
C881        C  0.49754518  0.28395222  0.01837632    -0.10900
C882        C  0.48155220  0.26242058  0.03251264     0.11700
C883        C  0.49341057  0.24594627  0.55140370    -0.02700
C884        C  0.52274504  0.24322485  0.54456514    -0.05500
C885        C  0.54089513  0.25421497  0.02117169    -0.16200
C886        C  0.52670527  0.28005314  0.01152230     0.02700
C887        C  0.44964333  0.26522521  0.02884570     0.12600
C888        C  0.47847224  0.21984256  0.56454154     0.63200
H889        H  0.53330048  0.22268937  0.54847422     0.12700
C890        C  0.54129637  0.30281569  0.99217922     0.55400
H891        H  0.48615086  0.30306665  0.01021602     0.08400
C892        C  0.43401282  0.28027144  0.05423688    -0.05400
C893        C  0.40385578  0.28269249  0.04791379    -0.06100
C894        C  0.38915830  0.27107584  0.01684750    -0.15700
C895        C  0.40335709  0.26269288  0.49827063    -0.01300
C896        C  0.43350985  0.26145364  0.50599102    -0.08800
C897        C  0.44916307  0.29339277  0.08784444     0.65500
H898        H  0.39143491  0.29388682  0.06724122     0.10900
C899        C  0.39026794  0.25019072  0.46322459     0.63900
H900        H  0.44723419  0.25175469  0.48697333     0.08300
F901        F  0.52261458  0.32460991  0.98230332    -0.19200
F902        F  0.55176966  0.29033380  0.96214440    -0.15400
F903        F  0.56333136  0.31538072  0.01407082    -0.18900
F904        F  0.47614521  0.19806650  0.53824897    -0.22300
F905        F  0.45128775  0.21710496  0.06280285    -0.23800
F906        F  0.49483552  0.20998736  0.59290397    -0.17800
F907        F  0.41083524  0.23688864  0.44353792    -0.20200
F908        F  0.37792389  0.27199381  0.44423674    -0.21400
F909        F  0.36934955  0.22976940  0.46838328    -0.18600
F910        F  0.42992133  0.30712583  0.10908788    -0.18700
F911        F  0.46960683  0.31358951  0.08028770    -0.22500
F912        F  0.46276999  0.27186923  0.10615934    -0.24100
N913        N  0.58845380  0.26634595  0.50516784    -0.02500
C914        C  0.56147485  0.25444844  0.50685906     0.00100
C915        C  0.56520385  0.21853856  0.98205352    -0.22800
C916        C  0.59053897  0.21679882  0.96599054    -0.23000
C917        C  0.60736287  0.24038316  0.97872813     0.00000
H918        H  0.54643987  0.20453191  0.97620598     0.13700
H919        H  0.59485888  0.20186291  0.94432750     0.13800
Fe920      Fe  0.80181235  0.34666862  0.72157757     1.65800
Fe921      Fe  0.80076941  0.34250070  0.80877183     1.73200
Fe922      Fe  0.74819897  0.37773986  0.76444595     1.54400
O923        O  0.75972661  0.40274099  0.72411590    -0.80700
O924        O  0.76342667  0.32180605  0.81809497    -0.79000
O925        O  0.80354368  0.38916908  0.71028448    -0.83200
O926        O  0.76166718  0.34019757  0.69195508    -0.78100
O927        O  0.76666837  0.40860007  0.79999404    -0.79900
O928        O  0.81419818  0.30307457  0.78600548    -0.82600
C929        C  0.73518436  0.33901272  0.69944196     0.98200
C930        C  0.78220230  0.40590367  0.70738542     1.05600
O931        O  0.78373933  0.35576154  0.76493274    -1.11600
O932        O  0.83931860  0.36180757  0.80215115    -0.74000
O933        O  0.84402624  0.35177765  0.74578337    -0.77500
O934        O  0.72776483  0.34806134  0.72913929    -0.78200
C935        C  0.85475190  0.35992636  0.77643892     0.97100
O936        O  0.80123116  0.30357036  0.72933553    -0.76200
O937        O  0.78948306  0.38032719  0.83773573    -0.81300
C938        C  0.73842791  0.33238461  0.81886940     0.99700
C939        C  0.77912497  0.40482885  0.82982690     1.05600
O940        O  0.73125365  0.35550754  0.80425679    -0.77000
C941        C  0.80992810  0.29025992  0.75575710     1.03900
N942        N  0.72218578  0.55106868  0.50368970    -0.02500
C943        C  0.71291372  0.57863778  0.50271986     0.00100
C944        C  0.69453035  0.58414138  0.52914480    -0.22800
C945        C  0.69347942  0.55951454  0.54739266    -0.23000
C946        C  0.71112887  0.53963085  0.53149156     0.00000
H947        H  0.68657433  0.60511802  0.53769016     0.13700
H948        H  0.68439750  0.55786230  0.57235651     0.13800
N949        N  0.80382828  0.05804390  0.78028864    -0.02500
C950        C  0.80283407  0.08744691  0.78171479     0.00100
C951        C  0.80080251  0.09816832  0.81576400    -0.22800
C952        C  0.80180714  0.07487735  0.83618199    -0.23000
C953        C  0.80419963  0.05066769  0.81389723     0.00000
H954        H  0.80071845  0.12074270  0.82499547     0.13700
H955        H  0.80219216  0.07557463  0.86437442     0.13800
Fe956      Fe  0.79198178  0.83434844  0.57418003     1.65800
Fe957      Fe  0.78559729  0.83744718  0.99244949     1.73200
Fe958      Fe  0.84295783  0.86890849  0.53067303     1.54400
O959        O  0.83005869  0.89838096  0.56912956    -0.80700
O960        O  0.82198433  0.82883579  0.96520641    -0.79000
O961        O  0.79683802  0.87577621  0.59721970    -0.83200
O962        O  0.83226674  0.82316933  0.59605286    -0.78100
O963        O  0.83107977  0.89285830  0.99839217    -0.79900
O964        O  0.78307152  0.79452065  0.00114097    -0.82600
C965        C  0.85841590  0.82955694  0.59181586     0.98200
C966        C  0.81238429  0.89795148  0.59293238     1.05600
O967        O  0.80643966  0.84638777  0.53008350    -1.11600
O968        O  0.74564031  0.84403900  0.01180392    -0.74000
O969        O  0.74899036  0.84361628  0.56087384    -0.77500
O970        O  0.86533573  0.84544904  0.56796009    -0.78200
C971        C  0.73344797  0.84574076  0.53262262     0.97100
O972        O  0.78588510  0.79178177  0.55453223    -0.76200
O973        O  0.78592030  0.87985650  0.97988126    -0.81300
C974        C  0.84921016  0.82801432  0.97183664     0.99700
C975        C  0.80777228  0.89642201  0.97982379     1.05600
O976        O  0.86117742  0.83775437  0.00113087    -0.77000
C977        C  0.78187395  0.77956587  0.52399784     1.03900
N978        N  0.01204940  0.78237912  0.77875840    -0.02500
C979        C  0.03829611  0.76991413  0.77549493     0.00100
C980        C  0.05003115  0.76219529  0.80771553    -0.22800
C981        C  0.03017937  0.76946886  0.83148720    -0.23000
C982        C  0.00716691  0.78186678  0.81316322     0.00000
H983        H  0.07097263  0.75256923  0.81334062     0.13700
H984        H  0.03215664  0.76593161  0.85911560     0.13800
N985        N  0.32110409  0.05976513  0.72977624    -0.02500
C986        C  0.33005164  0.03193429  0.72881612     0.00100
C987        C  0.33364110  0.02253152  0.76240684    -0.22800
C988        C  0.32657015  0.04517561  0.78463097    -0.23000
C989        C  0.31829024  0.06738460  0.76385057     0.00000
H990        H  0.33897831  0.00089124  0.76981649     0.13700
H991        H  0.32673056  0.04517714  0.81278063     0.13800
Fe992      Fe  0.30134100  0.28499745  0.96568019     1.65800
Fe993      Fe  0.24756359  0.24612000  0.50538873     1.73200
Fe994      Fe  0.29943854  0.28324008  0.55748304     1.54400
O995        O  0.33995198  0.27043240  0.54554674    -0.80700
O996        O  0.22907383  0.26488317  0.54888639    -0.79000
O997        O  0.34439711  0.28210961  0.98567400    -0.83200
O998        O  0.29864081  0.32658326  0.98600566    -0.78100
O999        O  0.29311926  0.24262368  0.57666257    -0.79900
O1000       O  0.22769493  0.27210700  0.97201934    -0.82600
C1001       C  0.30292682  0.33931847  0.51722203     0.98200
C1002       C  0.35387064  0.27617054  0.51961312     1.05600
O1003       O  0.28193984  0.27133719  0.51090342    -1.11600
O1004       O  0.26482482  0.22256093  0.95520668    -0.74000
O1005       O  0.30505274  0.24486449  0.94148226    -0.77500
O1006       O  0.30795053  0.32541743  0.54455267    -0.78200
C1007       C  0.28631506  0.22471749  0.93660088     0.97100
O1008       O  0.26061354  0.28992044  0.93974772    -0.76200
O1009       O  0.26729656  0.21550408  0.53589605    -0.81300
C1010       C  0.23611710  0.28562638  0.57108829     0.99700
C1011       C  0.28217911  0.21826701  0.56500488     1.05600
O1012       O  0.26088073  0.29756131  0.57401145    -0.77000
C1013       C  0.23426834  0.28575625  0.94597383     1.03900
N1014       N  0.08797763  0.36199123  0.76644852    -0.02500
C1015       C  0.06187277  0.37542516  0.76731305     0.00100
C1016       C  0.05473153  0.38727463  0.73549117    -0.22800
C1017       C  0.07617691  0.38027871  0.71409271    -0.23000
C1018       C  0.09573161  0.36422850  0.73327473     0.00000
H1019       H  0.03480292  0.39808470  0.72775985     0.13700
H1020       H  0.07640203  0.38446692  0.68670859     0.13800
N1021       N  0.28483244  0.55312184  0.93910922    -0.02500
C1022       C  0.28037493  0.52426813  0.94021027     0.00100
C1023       C  0.27390485  0.51182705  0.90695997    -0.22800
C1024       C  0.27345276  0.53399555  0.88466974    -0.23000
C1025       C  0.27955096  0.55914568  0.90512346     0.00000
H1026       H  0.26982411  0.48912332  0.89977725     0.13700
H1027       H  0.26872955  0.53209905  0.85666643     0.13800
Fe1028     Fe  0.28884071  0.78883234  0.72922261     1.65800
Fe1029     Fe  0.28319630  0.77481019  0.64107970     1.73200
Fe1030     Fe  0.33243885  0.73962263  0.69254557     1.54400
O1031       O  0.35341673  0.76039491  0.73645852    -0.80700
O1032       O  0.27706416  0.73140060  0.62764505    -0.79000
O1033       O  0.33009865  0.80079078  0.74768427    -0.83200
O1034       O  0.28986284  0.75147386  0.75735917    -0.78100
O1035       O  0.35716347  0.76249623  0.66089701    -0.79900
O1036       O  0.24089584  0.77545484  0.65768037    -0.82600
C1037       C  0.29614414  0.72490396  0.75153212     0.98200
C1038       C  0.35111622  0.78428477  0.75381846     1.05600
O1039       O  0.30126770  0.76780678  0.68752050    -1.11600
O1040       O  0.28729156  0.81906589  0.64876001    -0.74000
O1041       O  0.28680835  0.82787552  0.70605982    -0.77500
O1042       O  0.30870689  0.71588108  0.72458566    -0.78200
C1043       C  0.28738228  0.83649799  0.67544713     0.97100
O1044       O  0.24606100  0.78024713  0.71550374    -0.76200
O1045       O  0.32373476  0.77504768  0.61956208    -0.81300
C1046       C  0.29578051  0.71165148  0.62823265     0.99700
C1047       C  0.35013147  0.77237388  0.63128515     1.05600
O1048       O  0.31789251  0.71308363  0.64969784    -0.77000
C1049       C  0.23011933  0.77694164  0.68730114     1.03900
N1050       N  0.51477118  0.78244800  0.97507730    -0.02500
C1051       C  0.54405318  0.78029861  0.97559378     0.00100
C1052       C  0.55222997  0.77185319  0.94262563    -0.22800
C1053       C  0.52733421  0.76839630  0.92126862    -0.23000
C1054       C  0.50478595  0.77504308  0.94174612     0.00000
H1055       H  0.57407913  0.77043372  0.93446944     0.13700
H1056       H  0.52592162  0.76392283  0.89323615     0.13800
C1057       C  0.38569592  0.80601766  0.84439327    -0.10900
C1058       C  0.41240178  0.79236731  0.84266857     0.11700
C1059       C  0.42044466  0.77933498  0.81065941    -0.02700
C1060       C  0.40046011  0.77921724  0.78145188    -0.05500
C1061       C  0.37293816  0.79163724  0.78329926    -0.16200
C1062       C  0.36586775  0.80660982  0.81498756     0.02700
C1063       C  0.43144672  0.79114936  0.87498238     0.12600
C1064       C  0.44962802  0.76478264  0.80765397     0.63200
H1065       H  0.40580769  0.76827346  0.75708922     0.12700
C1066       C  0.33766893  0.82287580  0.81844617     0.55400
H1067       H  0.38039915  0.81589686  0.86935637     0.08400
C1068       C  0.45055338  0.81419273  0.88684403    -0.05400
C1069       C  0.47255963  0.80897046  0.91263096    -0.06100
C1070       C  0.47591046  0.78155160  0.92596047    -0.15700
C1071       C  0.45495144  0.75958765  0.91684392    -0.01300
C1072       C  0.43237473  0.76507116  0.89183206    -0.08800
C1073       C  0.44888173  0.84339272  0.87076547     0.65500
H1074       H  0.48895370  0.82542514  0.92024889     0.10900
C1075       C  0.45751664  0.73009651  0.93186627     0.63900
H1076       H  0.41678654  0.74815912  0.88294559     0.08300
F1077       F  0.33564545  0.83522671  0.85184773    -0.19200
F1078       F  0.31417954  0.80442147  0.81108811    -0.15400
F1079       F  0.33613935  0.84491258  0.79562860    -0.18900
F1080       F  0.45120145  0.74077397  0.82743781    -0.22300
F1081       F  0.47182206  0.78387830  0.81938928    -0.23800
F1082       F  0.45394388  0.75571055  0.77349661    -0.17800
F1083       F  0.45920773  0.73329137  0.96784256    -0.20200
F1084       F  0.48217579  0.71653471  0.92123475    -0.21400
F1085       F  0.43383219  0.71245442  0.92124216    -0.18600
F1086       F  0.46918602  0.86286954  0.88690838    -0.18700
F1087       F  0.42176648  0.85507555  0.87414521    -0.22500
F1088       F  0.45382553  0.84017841  0.83573928    -0.24100
C1089       C  0.42124568  0.79939877  0.59921548    -0.10900
C1090       C  0.41978393  0.78654896  0.56519612     0.11700
C1091       C  0.39458769  0.77060960  0.55218575    -0.02700
C1092       C  0.37161773  0.76805769  0.57400773    -0.05500
C1093       C  0.37367316  0.77958339  0.60873318    -0.16200
C1094       C  0.39869440  0.79601302  0.62146009     0.02700
C1095       C  0.44647162  0.78654123  0.54575117     0.12600
C1096       C  0.39261142  0.75505531  0.51610911     0.63200
H1097       H  0.35244558  0.75547677  0.56473419     0.12700
C1098       C  0.40174761  0.80984293  0.65836693     0.55400
H1099       H  0.44092282  0.81103126  0.60878008     0.08400
C1100       C  0.45311029  0.80834825  0.52316167    -0.05400
C1101       C  0.47725460  0.80458949  0.50296664    -0.06100
C1102       C  0.49525989  0.78036635  0.50571205    -0.15700
C1103       C  0.49010650  0.76023105  0.53105456    -0.01300
C1104       C  0.46560845  0.76357616  0.55042251    -0.08800
C1105       C  0.43516251  0.83558061  0.52099712     0.65500
H1106       H  0.48327457  0.82909228  0.98631884     0.10900
C1107       C  0.51021506  0.73512800  0.53750320     0.63900
H1108       H  0.46074441  0.74786931  0.56901809     0.08300
F1109       F  0.42532381  0.82860867  0.66330593    -0.19200
F1110       F  0.40560542  0.78867331  0.68214778    -0.15400
F1111       F  0.37716639  0.82545664  0.66502432    -0.18900
F1112       F  0.41376756  0.73419866  0.51455563    -0.22300
F1113       F  0.39648920  0.77446398  0.49084251    -0.23800
F1114       F  0.36597890  0.74146382  0.50827516    -0.17800
F1115       F  0.49991766  0.71683444  0.56113505    -0.20200
F1116       F  0.53682384  0.74585802  0.55121507    -0.21400
F1117       F  0.51341689  0.71893880  0.50669529    -0.18600
F1118       F  0.44429340  0.85323544  0.49598534    -0.18700
F1119       F  0.43773233  0.85101880  0.55297107    -0.22500
F1120       F  0.40630702  0.82868689  0.51259364    -0.24100
C1121       C  0.28947291  0.68676472  0.83623209    -0.10900
C1122       C  0.28209440  0.65871554  0.82299475     0.11700
C1123       C  0.27602247  0.65311421  0.78661588    -0.02700
C1124       C  0.28001099  0.67561173  0.76426796    -0.05500
C1125       C  0.28911366  0.70349448  0.77724728    -0.16200
C1126       C  0.29319611  0.70940515  0.81406583     0.02700
C1127       C  0.28231703  0.63532100  0.84778748     0.12600
C1128       C  0.26569651  0.62342245  0.77157763     0.63200
H1129       H  0.27638760  0.67146945  0.73624660     0.12700
C1130       C  0.30260096  0.73897980  0.83015957     0.55400
H1131       H  0.29317551  0.69049465  0.86431364     0.08400
C1132       C  0.30825676  0.62116303  0.85823888    -0.05400
C1133       C  0.30662142  0.59717352  0.87878738    -0.06100
C1134       C  0.28029105  0.58792842  0.89041219    -0.15700
C1135       C  0.25457127  0.60314714  0.88158680    -0.01300
C1136       C  0.25610867  0.62688359  0.86047504    -0.08800
C1137       C  0.33742755  0.63110000  0.84723938     0.65500
H1138       H  0.32579606  0.58459558  0.88452729     0.10900
C1139       C  0.22560102  0.59404691  0.89385541     0.63900
H1140       H  0.23671285  0.63861726  0.85283003     0.08300
F1141       F  0.30794729  0.73898503  0.86606043    -0.19200
F1142       F  0.28090573  0.75868195  0.82333007    -0.15400
F1143       F  0.32785854  0.74754764  0.81641388    -0.18900
F1144       F  0.24009133  0.61611880  0.78547133    -0.22300
F1145       F  0.28631435  0.60291795  0.77960780    -0.23800
F1146       F  0.26061835  0.62271919  0.73561041    -0.17800
F1147       F  0.22684630  0.59631070  0.92986279    -0.20200
F1148       F  0.21899078  0.56575653  0.88229433    -0.21400
F1149       F  0.20328527  0.61132912  0.88151435    -0.18600
F1150       F  0.35978963  0.61392875  0.85971808    -0.18700
F1151       F  0.34316010  0.65919502  0.86029656    -0.22500
F1152       F  0.33721824  0.63005750  0.81122999    -0.24100
C1153       C  0.31639227  0.60914199  0.50787384    -0.10900
C1154       C  0.29211932  0.61397188  0.52711978     0.11700
C1155       C  0.26635175  0.59771063  0.51825468    -0.02700
C1156       C  0.26556977  0.57759542  0.48942547    -0.05500
C1157       C  0.28887876  0.57346252  0.96882067    -0.16200
C1158       C  0.31555924  0.58814618  0.97806397     0.02700
C1159       C  0.29324613  0.63826628  0.55395605     0.12600
C1160       C  0.23965895  0.60201700  0.53868040     0.63200
H1161       H  0.24605277  0.56515304  0.48170057     0.12700
C1162       C  0.34337805  0.58151189  0.96084015     0.55400
H1163       H  0.33605603  0.62165013  0.51505955     0.08400
C1164       C  0.30543224  0.63576722  0.58840846    -0.05400
C1165       C  0.30434393  0.65983888  0.61236884    -0.06100
C1166       C  0.29277685  0.68645684  0.60243259    -0.15700
C1167       C  0.28213515  0.68919833  0.56712831    -0.01300
C1168       C  0.28222950  0.66476606  0.54374977    -0.08800
C1169       C  0.32041575  0.60826267  0.59930111     0.65500
H1170       H  0.31331987  0.65825484  0.63908900     0.10900
C1171       C  0.27208765  0.71789383  0.55338716     0.63900
H1172       H  0.27380281  0.66611976  0.51674796     0.08300
F1173       F  0.36492125  0.57552459  0.98617897    -0.19200
F1174       F  0.35180841  0.60544985  0.94399727    -0.15400
F1175       F  0.34078898  0.55793213  0.93702555    -0.18900
F1176       F  0.22978061  0.62998813  0.53621661    -0.22300
F1177       F  0.24636438  0.59708826  0.57341595    -0.23800
F1178       F  0.21731712  0.58327361  0.52620513    -0.17800
F1179       F  0.26612732  0.71598065  0.51751040    -0.20200
F1180       F  0.29353128  0.73876264  0.56102614    -0.21400
F1181       F  0.24705625  0.72651215  0.56838231    -0.18600
F1182       F  0.33006366  0.61013524  0.63430695    -0.18700
F1183       F  0.34415603  0.60339340  0.58000779    -0.22500
F1184       F  0.30162385  0.58484362  0.59361146    -0.24100
C1185       C  0.32009054  0.41555525  0.99462632    -0.10900
C1186       C  0.30500075  0.43055124  0.02016333     0.11700
C1187       C  0.29081558  0.41708709  0.54685735    -0.02700
C1188       C  0.29347487  0.38682756  0.54687537    -0.05500
C1189       C  0.30583986  0.37107584  0.51946354    -0.16200
C1190       C  0.32317527  0.38546655  0.99406045     0.02700
C1191       C  0.29695720  0.46070190  0.01328016     0.12600
C1192       C  0.27733645  0.43381338  0.57652322     0.63200
H1193       H  0.28451892  0.37514176  0.56728262     0.12700
C1194       C  0.34103256  0.37054399  0.96676119     0.55400
H1195       H  0.32819878  0.42751439  0.97389756     0.08400
C1196       C  0.31520188  0.48301632  0.50995607    -0.05400
C1197       C  0.30931165  0.50621106  0.48873813    -0.06100
C1198       C  0.28322625  0.50741913  0.97169615    -0.15700
C1199       C  0.26104081  0.48806806  0.97933562    -0.01300
C1200       C  0.26846298  0.46465295  0.99952228    -0.08800
C1201       C  0.34535723  0.48127217  0.52789306     0.65500
H1202       H  0.32662382  0.52124893  0.48463306     0.10900
C1203       C  0.22980087  0.48992278  0.96475732     0.63900
H1204       H  0.25233135  0.44787011  0.00179961     0.08300
F1205       F  0.35192950  0.38979890  0.44829303    -0.19200
F1206       F  0.32314533  0.35563388  0.94136286    -0.15400
F1207       F  0.36004484  0.35148524  0.98251050    -0.18900
F1208       F  0.25623642  0.44446669  0.06786362    -0.22300
F1209       F  0.29587719  0.45602843  0.58976085    -0.23800
F1210       F  0.27221691  0.41631406  0.60346462    -0.17800
F1211       F  0.22384275  0.46745496  0.93987714    -0.20200
F1212       F  0.22378741  0.51589257  0.94985586    -0.21400
F1213       F  0.21160404  0.48738135  0.99144204    -0.18600
F1214       F  0.35148874  0.50659866  0.54809143    -0.18700
F1215       F  0.36534792  0.47816386  0.50293902    -0.22500
F1216       F  0.34828278  0.45844705  0.54949453    -0.24100
C1217       C  0.18464240  0.33101882  0.62235658    -0.17300
C1218       C  0.18288019  0.31462004  0.65173803     0.11700
C1219       C  0.19705328  0.28764020  0.65324099    -0.02700
C1220       C  0.21326691  0.27839285  0.62534626    -0.05500
C1221       C  0.21564259  0.29518041  0.59653070    -0.16200
C1222       C  0.20098519  0.32173198  0.59455047     0.02700
C1223       C  0.16240957  0.32466548  0.67728186     0.12600
C1224       C  0.19592719  0.26774971  0.68317289     0.63200
H1225       H  0.22477532  0.25807422  0.62641991     0.12700
C1226       C  0.20224882  0.33971119  0.56293592     0.55400
H1227       H  0.17278833  0.35109840  0.62129139     0.08400
C1228       C  0.16958276  0.34645071  0.70392827    -0.05400
C1229       C  0.14731178  0.35791688  0.72337887    -0.06100
C1230       C  0.11869304  0.34783437  0.71686519    -0.15700
C1231       C  0.11213046  0.32434837  0.69201960    -0.01300
C1232       C  0.13424746  0.31341057  0.67239837    -0.08800
C1233       C  0.20049474  0.35734403  0.71156578     0.65500
H1234       H  0.15182498  0.37551593  0.74291475     0.10900
C1235       C  0.08255320  0.30983728  0.68466050     0.63900
H1236       H  0.12934304  0.29626094  0.65230911     0.08300
F1237       F  0.19353923  0.32296192  0.53300371    -0.19200
F1238       F  0.23026195  0.34953010  0.56050486    -0.15400
F1239       F  0.18430704  0.36348597  0.56483541    -0.18900
F1240       F  0.18266313  0.24189699  0.67081926    -0.22300
F1241       F  0.18101798  0.27917494  0.71053190    -0.23800
F1242       F  0.22387038  0.26214050  0.69612639    -0.17800
F1243       F  0.07308994  0.31270555  0.65009208    -0.20200
F1244       F  0.06167496  0.32096332  0.70530489    -0.21400
F1245       F  0.08505427  0.28068015  0.69035615    -0.18600
F1246       F  0.20284777  0.37809218  0.73910735    -0.18700
F1247       F  0.21017857  0.36950042  0.68248980    -0.22500
F1248       F  0.21813046  0.33447059  0.72025586    -0.24100
C1249       C  0.16186307  0.29820841  0.89289073    -0.10900
C1250       C  0.17055909  0.31790810  0.86932326     0.11700
C1251       C  0.19947495  0.32839530  0.87225443    -0.02700
C1252       C  0.21910653  0.31769860  0.89802045    -0.05500
C1253       C  0.21088369  0.29713859  0.92128231    -0.16200
C1254       C  0.18136335  0.28741527  0.91882026     0.02700
C1255       C  0.14839057  0.32813417  0.84288314     0.12600
C1256       C  0.20960745  0.35077575  0.84821550     0.63200
H1257       H  0.24127468  0.32554024  0.90013057     0.12700
C1258       C  0.17002768  0.26554795  0.94270323     0.55400
H1259       H  0.13937090  0.29130202  0.89060985     0.08400
C1260       C  0.13897087  0.31115428  0.81227112    -0.05400
C1261       C  0.11759896  0.32234579  0.78896073    -0.06100
C1262       C  0.10630237  0.35030544  0.79433851    -0.15700
C1263       C  0.11655007  0.36752224  0.82460047    -0.01300
C1264       C  0.13642541  0.35550542  0.84904778    -0.08800
C1265       C  0.15191175  0.28170298  0.80381378     0.65500
H1266       H  0.10988669  0.30950980  0.76567661     0.10900
C1267       C  0.10783343  0.39881935  0.83092441     0.63900
H1268       H  0.14343220  0.36781939  0.87304848     0.08300
F1269       F  0.18548808  0.24015337  0.93985059    -0.19200
F1270       F  0.14107859  0.25865883  0.93435047    -0.15400
F1271       F  0.17251638  0.27685396  0.97687960    -0.18900
F1272       F  0.19489437  0.37635285  0.85349488    -0.22300
F1273       F  0.20450014  0.34069869  0.81374062    -0.23800
F1274       F  0.23893523  0.35688846  0.85425945    -0.17800
F1275       F  0.08059796  0.39986133  0.84328497    -0.20200
F1276       F  0.10794627  0.41330011  0.80048293    -0.21400
F1277       F  0.12683671  0.41339666  0.85552037    -0.18600
F1278       F  0.14084886  0.26963833  0.77173755    -0.18700
F1279       F  0.14589845  0.26286778  0.82898676    -0.22500
F1280       F  0.18161135  0.28438476  0.80280330    -0.24100
C1281       C  0.33071571  0.11305394  0.66145363    -0.10900
C1282       C  0.30215459  0.12234115  0.65517082     0.11700
C1283       C  0.27936154  0.10818790  0.67030403    -0.02700
C1284       C  0.28635010  0.08650154  0.69350349    -0.05500
C1285       C  0.31503537  0.07814053  0.70117961    -0.16200
C1286       C  0.33761419  0.09105100  0.68429880     0.02700
C1287       C  0.29690494  0.14702696  0.63261564     0.12600
C1288       C  0.24791186  0.11619273  0.66233480     0.63200
H1289       H  0.26947554  0.07610900  0.70645241     0.12700
C1290       C  0.36878821  0.08169951  0.69038999     0.55400
H1291       H  0.34764613  0.12355070  0.64855953     0.08400
C1292       C  0.30118726  0.17603869  0.64565899    -0.05400
C1293       C  0.29611304  0.19832644  0.62264321    -0.06100
C1294       C  0.28675031  0.19266894  0.58708158    -0.15700
C1295       C  0.28224120  0.16321425  0.57435253    -0.01300
C1296       C  0.28800791  0.14102965  0.59739777    -0.08800
C1297       C  0.31116793  0.18334290  0.68376952     0.65500
H1298       H  0.29932559  0.22056358  0.63261124     0.10900
C1299       C  0.27146966  0.15465712  0.53688874     0.63900
H1300       H  0.28526952  0.11852042  0.58825143     0.08300
F1301       F  0.38766525  0.09933724  0.67469706    -0.19200
F1302       F  0.37148524  0.05382365  0.67625166    -0.15400
F1303       F  0.37699720  0.08263810  0.72573229    -0.18900
F1304       F  0.24042006  0.11136019  0.62701641    -0.22300
F1305       F  0.24388484  0.14506747  0.67184370    -0.23800
F1306       F  0.22931669  0.09988009  0.68016477    -0.17800
F1307       F  0.27091586  0.12492841  0.53004278    -0.20200
F1308       F  0.28955706  0.16630738  0.51430821    -0.21400
F1309       F  0.24358270  0.16452088  0.53032068    -0.18600
F1310       F  0.31261330  0.21293150  0.69157374    -0.18700
F1311       F  0.33843374  0.17223588  0.69110077    -0.22500
F1312       F  0.29212393  0.17156572  0.70530225    -0.24100
C1313       C  0.31126077  0.16317003  0.87728703    -0.10900
C1314       C  0.29559376  0.16866184  0.84588122     0.11700
C1315       C  0.27581791  0.19174765  0.84468030    -0.02700
C1316       C  0.27316889  0.20936898  0.87535946    -0.05500
C1317       C  0.28910962  0.20392373  0.90680206    -0.16200
C1318       C  0.30844746  0.18039971  0.90791972     0.02700
C1319       C  0.29779956  0.14691041  0.81666879     0.12600
C1320       C  0.25735792  0.19725557  0.81147133     0.63200
H1321       H  0.25851617  0.22754489  0.87511216     0.12700
C1322       C  0.32611178  0.17180779  0.94035420     0.55400
H1323       H  0.32556694  0.14467999  0.87799714     0.08400
C1324       C  0.32247254  0.14516631  0.79694465    -0.05400
C1325       C  0.32695114  0.11943790  0.77697009    -0.06100
C1326       C  0.30830192  0.09555829  0.77767485    -0.15700
C1327       C  0.28251263  0.09810132  0.79520319    -0.01300
C1328       C  0.27762062  0.12405944  0.81431489    -0.08800
C1329       C  0.34480451  0.16953489  0.79860706     0.65500
H1330       H  0.34631479  0.11694606  0.76299198     0.10900
C1331       C  0.26115434  0.07307571  0.79595719     0.63900
H1332       H  0.25923471  0.12574628  0.83019865     0.08300
F1333       F  0.35516201  0.17170731  0.93406749    -0.19200
F1334       F  0.31799234  0.14413645  0.94778982    -0.15400
F1335       F  0.32257265  0.19009799  0.96934977    -0.18900
F1336       F  0.23850028  0.17419899  0.80295320    -0.22300
F1337       F  0.27475569  0.20041238  0.78420150    -0.23800
F1338       F  0.24114371  0.22211667  0.81523512    -0.17800
F1339       F  0.27237248  0.05283374  0.81810106    -0.20200
F1340       F  0.25558316  0.06001848  0.76289887    -0.21400
F1341       F  0.23499783  0.08235955  0.80769651    -0.18600
F1342       F  0.36616249  0.16380632  0.77581577    -0.18700
F1343       F  0.35801880  0.17331168  0.83198045    -0.22500
F1344       F  0.33158614  0.19499977  0.78973276    -0.24100
C1345       C  0.33913825  0.96204301  0.67922949    -0.10900
C1346       C  0.31061348  0.95762957  0.66499651     0.11700
C1347       C  0.29161561  0.98141135  0.66289506    -0.02700
C1348       C  0.30089028  0.00818890  0.67929125    -0.05500
C1349       C  0.32802683  0.01121965  0.69809440    -0.16200
C1350       C  0.34839363  0.98866921  0.69539332     0.02700
C1351       C  0.29988945  0.92734723  0.66219204     0.12600
C1352       C  0.26104182  0.97799818  0.64582528     0.63200
H1353       H  0.28547997  0.02551955  0.68153449     0.12700
C1354       C  0.37925737  0.99067803  0.71175460     0.55400
H1355       H  0.35356494  0.94373169  0.68086224     0.08400
C1356       C  0.30884367  0.90651601  0.63700553    -0.05400
C1357       C  0.30331648  0.87708610  0.64162903    -0.06100
C1358       C  0.28939239  0.86807349  0.67064831    -0.15700
C1359       C  0.27883489  0.88932755  0.69461043    -0.01300
C1360       C  0.28477781  0.91855501  0.69009639    -0.08800
C1361       C  0.32423284  0.91535768  0.60562563     0.65500
H1362       H  0.31094677  0.86080702  0.62321104     0.10900
C1363       C  0.26172523  0.88172616  0.72520537     0.63900
H1364       H  0.27894200  0.93491771  0.70958909     0.08300
F1365       F  0.39814895  0.98337824  0.68647624    -0.19200
F1366       F  0.38265096  0.97141249  0.73788727    -0.15400
F1367       F  0.38678026  0.01809354  0.72586255    -0.18900
F1368       F  0.24449856  0.96075546  0.66500771    -0.22300
F1369       F  0.26190189  0.96538741  0.61246124    -0.23800
F1370       F  0.24746543  0.00445156  0.64336467    -0.17800
F1371       F  0.27992413  0.87000014  0.75069120    -0.20200
F1372       F  0.23978223  0.86214727  0.71396048    -0.21400
F1373       F  0.24897989  0.90587657  0.74032058    -0.18600
F1374       F  0.32985040  0.89173703  0.58345642    -0.18700
F1375       F  0.35036800  0.92888224  0.61625980    -0.22500
F1376       F  0.30706596  0.93421532  0.58693744    -0.24100
C1377       C  0.09527796  0.74381476  0.71760190    -0.10900
C1378       C  0.10687952  0.77059884  0.71007230     0.11700
C1379       C  0.09002127  0.79581087  0.71418043    -0.02700
C1380       C  0.06412540  0.79399619  0.73113603    -0.05500
C1381       C  0.05504992  0.76791042  0.74397112    -0.16200
C1382       C  0.06942780  0.74200657  0.73438524     0.02700
C1383       C  0.13820314  0.77211116  0.70375222     0.12600
C1384       C  0.10026959  0.82473352  0.70268849     0.63200
H1385       H  0.05275705  0.81346353  0.73779720     0.12700
C1386       C  0.05933036  0.71224995  0.74320256     0.55400
H1387       H  0.10770686  0.72438605  0.71292047     0.08400
C1388       C  0.15962205  0.77182754  0.73190219    -0.05400
C1389       C  0.18889012  0.77278070  0.72476574    -0.06100
C1390       C  0.19792122  0.77490107  0.69068103    -0.15700
C1391       C  0.17615621  0.77603990  0.66253099    -0.01300
C1392       C  0.14665056  0.77399369  0.66967875    -0.08800
C1393       C  0.15165346  0.77077644  0.76958764     0.65500
H1394       H  0.20508376  0.77189175  0.74644854     0.10900
C1395       C  0.18352605  0.77995995  0.62527325     0.63900
H1396       H  0.12973858  0.77406563  0.64864464     0.08300
F1397       F  0.07906778  0.70121244  0.76759625    -0.19200
F1398       F  0.05769330  0.69398338  0.71330684    -0.15400
F1399       F  0.03226764  0.71267914  0.75627721    -0.18900
F1400       F  0.10363977  0.82258148  0.66721670    -0.22300
F1401       F  0.12648484  0.83262260  0.72037501    -0.23800
F1402       F  0.08061867  0.84648647  0.70905603    -0.17800
F1403       F  0.15893501  0.78249913  0.60294480    -0.20200
F1404       F  0.19873642  0.75629571  0.61313298    -0.21400
F1405       F  0.19996527  0.80493292  0.62404543    -0.18600
F1406       F  0.17579063  0.77314118  0.79311719    -0.18700
F1407       F  0.13788363  0.74482996  0.77420958    -0.22500
F1408       F  0.13344118  0.79336479  0.77766524    -0.24100
C1409       C  0.65494347  0.85281235  0.01524964    -0.10900
C1410       C  0.64077443  0.83781099  0.53486281     0.11700
C1411       C  0.65890312  0.83624117  0.56585431    -0.02700
C1412       C  0.68888189  0.84063241  0.56460099    -0.05500
C1413       C  0.70121179  0.84794438  0.53377012    -0.16200
C1414       C  0.68471722  0.85921007  0.01603623     0.02700
C1415       C  0.61485356  0.82292424  0.03278242     0.12600
C1416       C  0.64763003  0.82764568  0.59984664     0.63200
H1417       H  0.70288485  0.83685683  0.58777923     0.12700
C1418       C  0.69579610  0.87585948  0.98679824     0.55400
H1419       H  0.64111667  0.85720523  0.99216317     0.08400
C1420       C  0.58819766  0.83752102  0.02807924    -0.05400
C1421       C  0.56365938  0.82164869  0.01351783    -0.06100
C1422       C  0.56549814  0.79211290  0.00313089    -0.15700
C1423       C  0.59156314  0.77714795  0.01113941    -0.01300
C1424       C  0.61576062  0.79293077  0.02574849    -0.08800
C1425       C  0.58597390  0.86977919  0.03688330     0.65500
H1426       H  0.54374740  0.83287837  0.00688170     0.10900
C1427       C  0.59572156  0.74489404  0.00350304     0.63900
H1428       H  0.63578192  0.78134498  0.53401497     0.08300
F1429       F  0.71684287  0.89567011  0.00014592    -0.19200
F1430       F  0.67376060  0.89108220  0.97006511    -0.15400
F1431       F  0.70718180  0.85693278  0.96234264    -0.18900
F1432       F  0.65465526  0.79916144  0.60507737    -0.22300
F1433       F  0.61791476  0.83062408  0.60004661    -0.23800
F1434       F  0.66025454  0.84513876  0.62730633    -0.17800
F1435       F  0.61652968  0.74083198  0.97968332    -0.20200
F1436       F  0.57076107  0.73043538  0.99027030    -0.21400
F1437       F  0.60690771  0.73270427  0.54717289    -0.18600
F1438       F  0.55738999  0.87846947  0.03641421    -0.18700
F1439       F  0.59961728  0.88509111  0.01286169    -0.22500
F1440       F  0.59254931  0.87670552  0.56018801    -0.24100
C1441       C  0.96473453  0.82181695  0.71334001    -0.10900
C1442       C  0.94756019  0.79898395  0.69735018     0.11700
C1443       C  0.95262011  0.77041755  0.70755846    -0.02700
C1444       C  0.97453706  0.76586783  0.73402605    -0.05500
C1445       C  0.99111860  0.78883969  0.75073385    -0.16200
C1446       C  0.98614991  0.81739628  0.74030534     0.02700
C1447       C  0.92411136  0.80587710  0.67049728     0.12600
C1448       C  0.93480592  0.74496075  0.69074641     0.63200
H1449       H  0.97876559  0.74424699  0.74244551     0.12700
C1450       C  0.00236742  0.84398544  0.75651235     0.55400
H1451       H  0.96095322  0.84358803  0.70504337     0.08400
C1452       C  0.89740383  0.81765291  0.67988297    -0.05400
C1453       C  0.87636155  0.82409291  0.65321106    -0.06100
C1454       C  0.88138546  0.81991906  0.61765096    -0.15700
C1455       C  0.90813613  0.80806238  0.60826713    -0.01300
C1456       C  0.92909618  0.80127877  0.63502170    -0.08800
C1457       C  0.89130520  0.82379538  0.71792408     0.65500
H1458       H  0.85598149  0.83344225  0.65999524     0.10900
C1459       C  0.91437182  0.80202901  0.57032739     0.63900
H1460       H  0.94982917  0.79263624  0.62847009     0.08300
F1461       F  0.02339080  0.83768723  0.78207885    -0.19200
F1462       F  0.98293217  0.86282458  0.77114275    -0.15400
F1463       F  0.01565670  0.85772352  0.73083620    -0.18900
F1464       F  0.93960552  0.74150848  0.65570874    -0.22300
F1465       F  0.90566128  0.74975265  0.69408590    -0.23800
F1466       F  0.94198417  0.71938455  0.70607134    -0.17800
F1467       F  0.91771882  0.82782480  0.55458580    -0.20200
F1468       F  0.89174140  0.78621166  0.55280867    -0.21400
F1469       F  0.93948227  0.78629370  0.56720673    -0.18600
F1470       F  0.86344001  0.83372665  0.72127487    -0.18700
F1471       F  0.91035522  0.84474950  0.73327866    -0.22500
F1472       F  0.89451153  0.79884364  0.73585039    -0.24100
C1473       C  0.95399542  0.81841317  0.87195234    -0.10900
C1474       C  0.93188911  0.79742735  0.86992566     0.11700
C1475       C  0.93278460  0.77340542  0.84539905    -0.02700
C1476       C  0.95689736  0.77056110  0.82508569    -0.05500
C1477       C  0.98026871  0.79027751  0.82949953    -0.16200
C1478       C  0.97892688  0.81465394  0.85356691     0.02700
C1479       C  0.90932771  0.80082983  0.89557980     0.12600
C1480       C  0.90901141  0.75041532  0.84155459     0.63200
H1481       H  0.95849202  0.75191567  0.80694619     0.12700
C1482       C  0.00297427  0.83709887  0.86197329     0.55400
H1483       H  0.95264329  0.83712113  0.89011695     0.08400
C1484       C  0.91575571  0.79692904  0.93158113    -0.05400
C1485       C  0.89517940  0.80523937  0.95534726    -0.06100
C1486       C  0.86790160  0.81601382  0.94429437    -0.15700
C1487       C  0.86032239  0.81661610  0.90761447    -0.01300
C1488       C  0.88175651  0.81016617  0.88415223    -0.08800
C1489       C  0.94446312  0.78449715  0.94502421     0.65500
H1490       H  0.90059177  0.80381468  0.98308480     0.10900
C1491       C  0.83009818  0.82398208  0.89268760     0.63900
H1492       H  0.87734954  0.81289544  0.85650497     0.08300
F1493       F  0.00873042  0.84053589  0.89781065    -0.19200
F1494       F  0.99387036  0.86328800  0.84975672    -0.15400
F1495       F  0.02863958  0.82990708  0.84774453    -0.18900
F1496       F  0.88326117  0.76240475  0.82930838    -0.22300
F1497       F  0.90545460  0.73914032  0.87349810    -0.23800
F1498       F  0.91537977  0.72778796  0.81827090    -0.17800
F1499       F  0.82802199  0.82275104  0.85651951    -0.20200
F1500       F  0.82286151  0.85162192  0.90414150    -0.21400
F1501       F  0.81021463  0.80430833  0.90294914    -0.18600
F1502       F  0.94397913  0.77730182  0.97942320    -0.18700
F1503       F  0.96649764  0.80453084  0.94316448    -0.22500
F1504       F  0.95043889  0.75962692  0.92522360    -0.24100
C1505       C  0.78205719  0.00905376  0.70085062    -0.10900
C1506       C  0.80767160  0.99368329  0.69696036     0.11700
C1507       C  0.83268275  0.00110991  0.71912513    -0.02700
C1508       C  0.83067663  0.02290494  0.74590416    -0.05500
C1509       C  0.80491443  0.03806806  0.75026542    -0.16200
C1510       C  0.77996175  0.03078807  0.72762388     0.02700
C1511       C  0.80742441  0.96932724  0.67004737     0.12600
C1512       C  0.86138038  0.98624330  0.71426691     0.63200
H1513       H  0.84904826  0.02802050  0.76406523     0.12700
C1514       C  0.75028136  0.04387691  0.73112516     0.55400
H1515       H  0.76312220  0.00322156  0.68351948     0.08400
C1516       C  0.79837558  0.94112000  0.67696001    -0.05400
C1517       C  0.80051084  0.91871421  0.65102943    -0.06100
C1518       C  0.81036335  0.92367609  0.61803812    -0.15700
C1519       C  0.81770579  0.95253386  0.61053781    -0.01300
C1520       C  0.81632294  0.97477410  0.63701389    -0.08800
C1521       C  0.78604192  0.93480158  0.71135744     0.65500
H1522       H  0.79451722  0.89689683  0.65660403     0.10900
C1523       C  0.82632247  0.96035892  0.57485675     0.63900
H1524       H  0.82246749  0.99676442  0.63230601     0.08300
F1525       F  0.73021890  0.02193624  0.73379743    -0.19200
F1526       F  0.74248618  0.05850356  0.70157078    -0.15400
F1527       F  0.74897977  0.06277801  0.76003892    -0.18900
F1528       F  0.87044578  0.99158598  0.68176072    -0.22300
F1529       F  0.85836945  0.95669587  0.71664824    -0.23800
F1530       F  0.88276996  0.99620998  0.73922765    -0.17800
F1531       F  0.80608226  0.94930134  0.54923831    -0.20200
F1532       F  0.85330707  0.94929325  0.56892585    -0.21400
F1533       F  0.82772947  0.99004431  0.57212423    -0.18600
F1534       F  0.77943657  0.90569908  0.71308913    -0.18700
F1535       F  0.76085515  0.95022594  0.71490756    -0.22500
F1536       F  0.80574392  0.94272129  0.73907750    -0.24100
C1537       C  0.83079369  0.99501654  0.87414189    -0.10900
C1538       C  0.80808961  0.97480783  0.86981064     0.11700
C1539       C  0.78645053  0.97676004  0.84202590    -0.02700
C1540       C  0.78720513  0.00070999  0.82103192    -0.05500
C1541       C  0.80942018  0.02161100  0.82672978    -0.16200
C1542       C  0.83285595  0.01721652  0.85150944     0.02700
C1543       C  0.80709837  0.95336876  0.89663900     0.12600
C1544       C  0.76221021  0.95442505  0.83552888     0.63200
H1545       H  0.76956533  0.00430829  0.80186095     0.12700
C1546       C  0.86021367  0.03559294  0.85543989     0.55400
H1547       H  0.84715834  0.99345523  0.89552459     0.08400
C1548       C  0.82817091  0.93149803  0.90003012    -0.05400
C1549       C  0.82834766  0.91472116  0.92915762    -0.06100
C1550       C  0.80766494  0.91832991  0.95389737    -0.15700
C1551       C  0.78687650  0.94045450  0.95088081    -0.01300
C1552       C  0.78713067  0.95778476  0.92216710    -0.08800
C1553       C  0.85000357  0.92540123  0.87284100     0.65500
H1554       H  0.84444264  0.89804038  0.93251023     0.10900
C1555       C  0.76499054  0.94768566  0.97751382     0.63900
H1556       H  0.77203206  0.97551560  0.92011261     0.08300
F1557       F  0.88413213  0.01785685  0.85842414    -0.19200
F1558       F  0.86006000  0.05386347  0.88517811    -0.15400
F1559       F  0.86308433  0.05173777  0.82688322    -0.18900
F1560       F  0.74408321  0.95637446  0.86255229    -0.22300
F1561       F  0.77369344  0.92692836  0.83327834    -0.23800
F1562       F  0.74577843  0.95844581  0.80467768    -0.17800
F1563       F  0.76846262  0.97641918  0.98930624    -0.20200
F1564       F  0.76784539  0.93112405  0.00627491    -0.21400
F1565       F  0.73731934  0.94363664  0.96175559    -0.18600
F1566       F  0.86568741  0.90062748  0.87915993    -0.18700
F1567       F  0.86950818  0.94815261  0.87301767    -0.22500
F1568       F  0.83572473  0.92150238  0.84003923    -0.24100
C1569       C  0.75070960  0.70396927  0.52992923    -0.10900
C1570       C  0.76376885  0.68898196  0.50257180     0.11700
C1571       C  0.77989296  0.70551122  0.98296962    -0.02700
C1572       C  0.78755504  0.73425206  0.99368876    -0.05500
C1573       C  0.77674700  0.74794976  0.51948546    -0.16200
C1574       C  0.75654560  0.73345925  0.53858530     0.02700
C1575       C  0.75587201  0.65808571  0.49534282     0.12600
C1576       C  0.79096659  0.69142622  0.94989316     0.63200
H1577       H  0.80272799  0.74586688  0.97926004     0.12700
C1578       C  0.74015688  0.74920649  0.56672639     0.55400
H1579       H  0.73551552  0.69226622  0.54423694     0.08400
C1580       C  0.76595560  0.63820694  0.01476661    -0.05400
C1581       C  0.75282731  0.61074595  0.01267968    -0.06100
C1582       C  0.73080715  0.60249808  0.49195110    -0.15700
C1583       C  0.71907167  0.62327873  0.46973068    -0.01300
C1584       C  0.73194616  0.65102557  0.47166599    -0.08800
C1585       C  0.79218327  0.64454729  0.04034113     0.65500
H1586       H  0.76113508  0.59446823  0.02974677     0.10900
C1587       C  0.69274293  0.61602377  0.44488094     0.63900
H1588       H  0.72232536  0.66790801  0.45645977     0.08300
F1589       F  0.71930744  0.73163362  0.57905503    -0.19200
F1590       F  0.72628763  0.77299716  0.55337368    -0.15400
F1591       F  0.75920474  0.75820796  0.59469347    -0.18900
F1592       F  0.76779583  0.68451492  0.92601967    -0.22300
F1593       F  0.80575475  0.66641490  0.95716145    -0.23800
F1594       F  0.80947921  0.70967271  0.93454041    -0.17800
F1595       F  0.66916970  0.60979191  0.46337591    -0.20200
F1596       F  0.69862905  0.59211428  0.42334201    -0.21400
F1597       F  0.68546681  0.63870512  0.42412927    -0.18600
F1598       F  0.80285496  0.61960755  0.05457640    -0.18700
F1599       F  0.78464662  0.66335601  0.06736402    -0.22500
F1600       F  0.81418647  0.65697559  0.02369666    -0.24100
C1601       C  0.99585752  0.34785677  0.80411471    -0.10900
C1602       C  0.97962733  0.37304656  0.80042481     0.11700
C1603       C  0.99403862  0.40001850  0.79969688    -0.02700
C1604       C  0.02423589  0.40016370  0.79792009    -0.05500
C1605       C  0.03961365  0.37423036  0.79333446    -0.16200
C1606       C  0.02590361  0.34784660  0.80040522     0.02700
C1607       C  0.94773954  0.37013628  0.79376836     0.12600
C1608       C  0.97740411  0.42811768  0.79723697     0.63200
H1609       H  0.03531018  0.42031579  0.79407838     0.12700
C1610       C  0.04224350  0.31974989  0.80321013     0.55400
H1611       H  0.98434396  0.32778004  0.80701113     0.08400
C1612       C  0.93484802  0.36021172  0.76066195    -0.05400
C1613       C  0.90449581  0.35793425  0.75598732    -0.06100
C1614       C  0.88659087  0.36590609  0.78291876    -0.15700
C1615       C  0.89983418  0.37766831  0.81559778    -0.01300
C1616       C  0.93024413  0.37844158  0.82057257    -0.08800
C1617       C  0.95309299  0.35173849  0.73043486     0.65500
H1618       H  0.89459063  0.34921903  0.73113764     0.10900
C1619       C  0.88266453  0.39009527  0.84521951     0.63900
H1620       H  0.94082240  0.38580772  0.84565101     0.08300
F1621       F  0.05390681  0.31198957  0.77208397    -0.19200
F1622       F  0.02446877  0.29718369  0.81101594    -0.15400
F1623       F  0.06393993  0.32310323  0.82981614    -0.18900
F1624       F  0.96174453  0.43284920  0.82623253    -0.22300
F1625       F  0.95860690  0.42661946  0.76751127    -0.23800
F1626       F  0.99568953  0.45173672  0.79558411    -0.17800
F1627       F  0.86872163  0.36807844  0.86046138    -0.20200
F1628       F  0.86262598  0.40967310  0.83257733    -0.21400
F1629       F  0.90033119  0.40476420  0.87117691    -0.18600
F1630       F  0.93620071  0.34638097  0.69947739    -0.18700
F1631       F  0.96830917  0.32690135  0.73746505    -0.22500
F1632       F  0.97242607  0.37380485  0.72549672    -0.24100
C1633       C  0.83841643  0.15018714  0.74925579    -0.10900
C1634       C  0.81352333  0.16548318  0.73955008     0.11700
C1635       C  0.78736813  0.15027227  0.72967935    -0.02700
C1636       C  0.78520105  0.12114975  0.73809360    -0.05500
C1637       C  0.80898269  0.10717047  0.75424699    -0.16200
C1638       C  0.83665772  0.12077264  0.75591400     0.02700
C1639       C  0.81450131  0.19741987  0.74459664     0.12600
C1640       C  0.76183975  0.16529921  0.71186441     0.63200
H1641       H  0.76423436  0.11045584  0.73582828     0.12700
C1642       C  0.86370042  0.10546181  0.76902128     0.55400
H1643       H  0.85866746  0.16203340  0.75484362     0.08400
C1644       C  0.80823104  0.21157545  0.77681851    -0.05400
C1645       C  0.80825702  0.24194429  0.77966147    -0.06100
C1646       C  0.81392728  0.25845626  0.75141098    -0.15700
C1647       C  0.82173836  0.24409706  0.71965427    -0.01300
C1648       C  0.82200285  0.21364712  0.71704580    -0.08800
C1649       C  0.80114036  0.19468082  0.80795011     0.65500
H1650       H  0.80271866  0.25307440  0.80385155     0.10900
C1651       C  0.82969262  0.26039833  0.68843428     0.63900
H1652       H  0.82726966  0.20211100  0.69298589     0.08300
F1653       F  0.86355284  0.10279607  0.80454708    -0.19200
F1654       F  0.88854553  0.12054036  0.76271434    -0.15400
F1655       F  0.86477061  0.07840118  0.75205639    -0.18900
F1656       F  0.77048116  0.17738502  0.68217756    -0.22300
F1657       F  0.75179792  0.18699262  0.73396968    -0.23800
F1658       F  0.73924669  0.14612118  0.70191143    -0.17800
F1659       F  0.84953240  0.28224869  0.69905267    -0.20200
F1660       F  0.80507818  0.27208802  0.67247555    -0.21400
F1661       F  0.84207864  0.24239716  0.66373998    -0.18600
F1662       F  0.79602483  0.21280406  0.83674779    -0.18700
F1663       F  0.82404615  0.17705765  0.81732465    -0.22500
F1664       F  0.77660514  0.17776860  0.79957610    -0.24100
C1665       C  0.78425610  0.44420007  0.62314717    -0.10900
C1666       C  0.76816052  0.46873732  0.63149322     0.11700
C1667       C  0.76118200  0.47506369  0.66629249    -0.02700
C1668       C  0.76848622  0.45493217  0.69123782    -0.05500
C1669       C  0.78235984  0.42897069  0.68235287    -0.16200
C1670       C  0.79183598  0.42406907  0.64809266     0.02700
C1671       C  0.75526803  0.48501509  0.60253070     0.12600
C1672       C  0.74421384  0.50183635  0.67649795     0.63200
H1673       H  0.76168607  0.45850411  0.71760412     0.12700
C1674       C  0.80817814  0.39706709  0.63697113     0.55400
H1675       H  0.78932950  0.44010715  0.59616743     0.08400
C1676       C  0.77059006  0.50678389  0.58708912    -0.05400
C1677       C  0.75554583  0.52281997  0.56190632    -0.06100
C1678       C  0.72615185  0.51730602  0.55150956    -0.15700
C1679       C  0.71149094  0.49417865  0.56543436    -0.01300
C1680       C  0.72649869  0.47831853  0.59074238    -0.08800
C1681       C  0.80234912  0.51337886  0.59760036     0.65500
H1682       H  0.76627097  0.54094117  0.55156085     0.10900
C1683       C  0.68027470  0.48536824  0.55514477     0.63900
H1684       H  0.71536957  0.46090810  0.60221996     0.08300
F1685       F  0.83421936  0.39592110  0.65688134    -0.19200
F1686       F  0.81440171  0.39680572  0.60226810    -0.15400
F1687       F  0.79173235  0.37260754  0.64115147    -0.18900
F1688       F  0.71584077  0.49872460  0.66280805    -0.22300
F1689       F  0.75629610  0.52616719  0.66387246    -0.23800
F1690       F  0.74416891  0.50628106  0.71241384    -0.17800
F1691       F  0.67927344  0.45653813  0.54325951    -0.20200
F1692       F  0.66747610  0.50133656  0.52911951    -0.21400
F1693       F  0.66429836  0.48866813  0.58411684    -0.18600
F1694       F  0.81258379  0.53637966  0.58034121    -0.18700
F1695       F  0.81874973  0.48941081  0.58949495    -0.22500
F1696       F  0.80626042  0.52033317  0.63307956    -0.24100
C1697       C  0.77755859  0.48057047  0.87519122    -0.10900
C1698       C  0.76910545  0.47394494  0.90806316     0.11700
C1699       C  0.76745977  0.44461349  0.91655121    -0.02700
C1700       C  0.77315502  0.42271112  0.89099627    -0.05500
C1701       C  0.77942920  0.42921136  0.85705818    -0.16200
C1702       C  0.78291673  0.45872531  0.84943688     0.02700
C1703       C  0.75734362  0.49759399  0.93061627     0.12600
C1704       C  0.75787342  0.43643662  0.95169460     0.63200
H1705       H  0.77058246  0.40020880  0.89661162     0.12700
C1706       C  0.79181484  0.46745063  0.81425105     0.55400
H1707       H  0.77828282  0.50312381  0.86912770     0.08400
C1708       C  0.77484064  0.51661559  0.95365983    -0.05400
C1709       C  0.76112392  0.53646787  0.97615652    -0.06100
C1710       C  0.73082996  0.53794792  0.97565744    -0.15700
C1711       C  0.71359675  0.52091037  0.95009546    -0.01300
C1712       C  0.72724697  0.50090564  0.92819157    -0.08800
C1713       C  0.80763584  0.51569695  0.95478814     0.65500
H1714       H  0.77390932  0.55032181  0.99509916     0.10900
C1715       C  0.68450072  0.51670913  0.44785520     0.63900
H1716       H  0.71412510  0.48713854  0.90930741     0.08300
F1717       F  0.80001021  0.49636383  0.81534562    -0.19200
F1718       F  0.76888711  0.46323985  0.78932207    -0.15400
F1719       F  0.81513475  0.45116232  0.80443132    -0.18900
F1720       F  0.72896287  0.44299574  0.95405947    -0.22300
F1721       F  0.77413389  0.45153114  0.97849086    -0.23800
F1722       F  0.76120064  0.40716156  0.95628601    -0.17800
F1723       F  0.67332747  0.52878070  0.91049264    -0.20200
F1724       F  0.67266009  0.53878462  0.46766154    -0.21400
F1725       F  0.67355595  0.49060904  0.45719281    -0.18600
F1726       F  0.82036895  0.53643367  0.97864125    -0.18700
F1727       F  0.81674878  0.52087590  0.92226829    -0.22500
F1728       F  0.81718515  0.48882330  0.96415717    -0.24100
C1729       C  0.66215354  0.32050096  0.64767018    -0.10900
C1730       C  0.67118415  0.30419231  0.61877512     0.11700
C1731       C  0.70116155  0.29953754  0.61598738    -0.02700
C1732       C  0.72110054  0.31070506  0.64312228    -0.05500
C1733       C  0.71220927  0.32696583  0.67256699    -0.16200
C1734       C  0.68186209  0.33205274  0.67470991     0.02700
C1735       C  0.64866823  0.29446467  0.59059928     0.12600
C1736       C  0.71204380  0.28319088  0.58419169     0.63200
H1737       H  0.74400604  0.30701231  0.64121600     0.12700
C1738       C  0.66972622  0.35017587  0.70452366     0.55400
H1739       H  0.63916876  0.32442025  0.64850822     0.08400
C1740       C  0.63010553  0.27031021  0.59312789    -0.05400
C1741       C  0.60935806  0.26286469  0.56519732    -0.06100
C1742       C  0.60634406  0.27880911  0.53503787    -0.15700
C1743       C  0.62396322  0.30405749  0.53383369    -0.01300
C1744       C  0.64476942  0.31121167  0.56155857    -0.08800
C1745       C  0.63266022  0.25211551  0.62478625     0.65500
H1746       H  0.59601390  0.24363123  0.56596893     0.10900
C1747       C  0.62205452  0.32475519  0.50484016     0.63900
H1748       H  0.65827386  0.33038052  0.56057841     0.08300
F1749       F  0.64010122  0.35393764  0.69927464    -0.19200
F1750       F  0.68255500  0.37740464  0.70743356    -0.15400
F1751       F  0.67469040  0.33663704  0.73549249    -0.18900
F1752       F  0.70536543  0.29824036  0.55470633    -0.22300
F1753       F  0.69916529  0.25605052  0.57974617    -0.23800
F1754       F  0.74177791  0.27964409  0.58742578    -0.17800
F1755       F  0.61797590  0.35256304  0.51876795    -0.20200
F1756       F  0.59962246  0.31840330  0.48018106    -0.21400
F1757       F  0.64775123  0.32408064  0.48879653    -0.18600
F1758       F  0.61312149  0.22913487  0.62156337    -0.18700
F1759       F  0.62720375  0.26890334  0.65444907    -0.22500
F1760       F  0.66027928  0.24104471  0.62888434    -0.24100
C1761       C  0.69052313  0.27708718  0.85627605    -0.10900
C1762       C  0.68349694  0.29238330  0.88702939     0.11700
C1763       C  0.69425529  0.32096728  0.89483374    -0.02700
C1764       C  0.71103824  0.33368876  0.87081198    -0.05500
C1765       C  0.71798597  0.31843838  0.84015345    -0.16200
C1766       C  0.70780529  0.28968979  0.83252705     0.02700
C1767       C  0.66403140  0.27815656  0.90993199     0.12600
C1768       C  0.68836112  0.33785834  0.92846038     0.63200
H1769       H  0.71968228  0.35544711  0.87624478     0.12700
C1770       C  0.71479566  0.27271454  0.79926356     0.55400
H1771       H  0.68228526  0.25517137  0.85107268     0.08400
C1772       C  0.63364388  0.27798884  0.90265613    -0.05400
C1773       C  0.61627742  0.26503040  0.92583584    -0.06100
C1774       C  0.62822188  0.25254014  0.95593561    -0.15700
C1775       C  0.65862249  0.25024782  0.96148672    -0.01300
C1776       C  0.67620692  0.26371380  0.93855082    -0.08800
C1777       C  0.61959463  0.29111422  0.87037052     0.65500
H1778       H  0.59291514  0.26494316  0.92100873     0.10900
C1779       C  0.67218007  0.23259639  0.99022819     0.63900
H1780       H  0.69959102  0.26292859  0.94255807     0.08300
F1781       F  0.70043425  0.24623377  0.79533860    -0.19200
F1782       F  0.74420209  0.26760443  0.79987125    -0.15400
F1783       F  0.70656921  0.28831221  0.77064493    -0.18900
F1784       F  0.69916402  0.32295767  0.95659930    -0.22300
F1785       F  0.65887701  0.34158661  0.92991390    -0.23800
F1786       F  0.70144485  0.36499405  0.93107174    -0.17800
F1787       F  0.70211950  0.23259550  0.99059415    -0.20200
F1788       F  0.64801217  0.20767461  0.47602393    -0.21400
F1789       F  0.65714345  0.24312585  0.51809334    -0.18600
F1790       F  0.58964392  0.29039712  0.86982619    -0.18700
F1791       F  0.62758334  0.27574693  0.84075213    -0.22500
F1792       F  0.62827377  0.31967728  0.86936109    -0.24100
C1793       C  0.49438801  0.29451574  0.53072764    -0.10900
C1794       C  0.47878967  0.27160271  0.54272996     0.11700
C1795       C  0.49559702  0.23706613  0.04341416    -0.02700
C1796       C  0.52527613  0.23387513  0.03846803    -0.05500
C1797       C  0.53757890  0.26477939  0.52834993    -0.16200
C1798       C  0.52344032  0.29147230  0.52279663     0.02700
C1799       C  0.44674536  0.27298521  0.53783091     0.12600
C1800       C  0.48015446  0.21192813  0.05809787     0.63200
H1801       H  0.53571993  0.21384458  0.04523290     0.12700
C1802       C  0.53785954  0.31587177  0.50593905     0.55400
H1803       H  0.48266484  0.31391746  0.52438383     0.08400
C1804       C  0.42971869  0.28654437  0.56289448    -0.05400
C1805       C  0.39946206  0.28684941  0.55582978    -0.06100
C1806       C  0.38600383  0.27513717  0.52400782    -0.15700
C1807       C  0.40505570  0.25652453  0.99110672    -0.01300
C1808       C  0.43516351  0.25378859  0.99772040    -0.08800
C1809       C  0.44357965  0.30067721  0.59669859     0.65500
H1810       H  0.38602433  0.29680360  0.57498269     0.10900
C1811       C  0.39033096  0.24296144  0.95753080     0.63900
H1812       H  0.44783746  0.24277606  0.97850296     0.08300
F1813       F  0.51990416  0.33944780  0.50198701    -0.19200
F1814       F  0.54549430  0.30637600  0.47315237    -0.15400
F1815       F  0.56195279  0.32511829  0.52694283    -0.18900
F1816       F  0.48174743  0.18767897  0.03553476    -0.22300
F1817       F  0.45110059  0.22586254  0.57499776    -0.23800
F1818       F  0.49373584  0.20616126  0.09012893    -0.17800
F1819       F  0.40936378  0.22695655  0.93818784    -0.20200
F1820       F  0.37885049  0.26427075  0.93709095    -0.21400
F1821       F  0.36842708  0.22464503  0.96542351    -0.18600
F1822       F  0.42307986  0.31176946  0.61816829    -0.18700
F1823       F  0.46154739  0.32319079  0.58935600    -0.22500
F1824       F  0.45973810  0.28059977  0.61469879    -0.24100
loop_ 
_geom_bond_atom_site_label_1 
_geom_bond_atom_site_label_2 
_geom_bond_distance 
_geom_bond_site_symmetry_2 
_ccdc_geom_bond_type 
N1            C2   1.368       .  A
N1          C917   1.368   1_554  A
N1          C830   1.452       .  S
C2          C885   1.497       .  S
C2          C915   1.382   1_554  A
C3            C4   1.364       .  A
C3          C914   1.381       .  A
C3            H6   1.082       .  S
C4            C5   1.380       .  A
C4            H7   1.082       .  S
C5          N913   1.369       .  A
C5          C862   1.480       .  S
Fe8          O24   2.025       .  S
Fe8          O14   2.107       .  S
Fe8          O21   2.096       .  S
Fe8          O13   2.041       .  S
Fe8          O19   1.950       .  S
Fe9          O12   2.041       .  S
Fe9          O16   2.082       .  S
Fe9          O20   2.033       .  S
Fe9          O25   2.101       .  S
Fe9          O19   1.947       .  S
Fe10         O28   2.086       .  S
Fe10         O15   2.053       .  S
Fe10         O22   2.055       .  S
Fe10         O11   2.081       .  S
Fe10         O19   1.941       .  S
O11          C18   1.273       .  A
O12          C26   1.261       .  A
O13          C18   1.261       .  A
O14          C17   1.279       .  A
O15          C27   1.270       .  A
O16          C29   1.274       .  A
C17         C821   1.503       .  S
C17          O22   1.268       .  A
C18         C757   1.478       .  S
O20          C23   1.261       .  A
O21          C23   1.277       .  A
C23         C702   1.495       .  S
O24          C29   1.260       .  A
O25          C27   1.278       .  A
C26         C853   1.468       .  S
C26          O28   1.270       .  A
C27         C789   1.489       .  S
C29         C734   1.475       .  S
N30          C34   1.349       .  A
N30          C31   1.349       .  A
N30        C1710   1.438   1_554  S
C31         C670   1.467   1_554  S
C31          C32   1.386       .  A
C32          C33   1.376       .  A
C32          H35   1.082       .  S
C33          C34   1.380       .  A
C33          H36   1.082       .  S
C34         C766   1.471       .  S
N37          C41   1.356       .  A
N37          C38   1.355       .  A
N37         C597   1.442       .  S
C38         C725   1.471       .  S
C38          C39   1.382       .  A
C39          C40   1.369       .  A
C39          H42   1.083       .  S
C40          C41   1.380       .  A
C40          H43   1.082       .  S
C41         C629   1.475       .  S
Fe44         O60   2.086       .  S
Fe44         O50   2.067       .  S
Fe44         O57   2.063       .  S
Fe44         O49   2.082       .  S
Fe44         O55   1.970       .  S
Fe45         O48   2.063       .  S
Fe45         O52   2.048       .  S
Fe45         O56   2.056       .  S
Fe45         O61   2.052       .  S
Fe45        O967   1.976       .  S
Fe46         O58   2.061       .  S
Fe46         O47   2.075       .  S
Fe46        O976   2.077       .  S
Fe46        O963   2.061   1_554  S
Fe46         O55   1.967       .  S
O47          C54   1.273       .  A
O48          C62   1.266       .  A
O49          C54   1.278       .  A
O50          C53   1.266       .  A
O51        Fe958   2.070       .  S
O51          C63   1.269       .  A
O52         C977   1.269       .  A
C53         C542   1.485       .  S
C53          O58   1.263       .  A
C54         C606   1.506       .  S
O55        Fe957   1.966   1_554  S
O56         C971   1.262       .  A
O57          C59   1.265       .  A
C59         C501   1.491       .  S
C59         O968   1.264       .  A
O60          C65   1.277       .  A
O61          C63   1.266       .  A
C62         C574   1.488       .  S
C62          O64   1.272       .  A
C63         C638   1.466       .  S
O64        Fe958   2.070       .  S
C65         C661   1.477       .  S
C65         O964   1.268       .  A
N66          C70   1.357       .  A
N66          C67   1.356       .  A
N66         C533   1.436   1_455  S
C67         C469   1.485       .  S
C67          C68   1.384       .  A
C68          C69   1.377       .  A
C68          H71   1.082       .  S
C69          C70   1.382       .  A
C69          H72   1.082       .  S
C70         C565   1.481   1_455  S
N73          C77   1.351       .  A
N73          C74   1.355       .  A
N73         C373   1.442       .  S
C74         C437   1.472       .  S
C74          C75   1.386       .  A
C75          C76   1.370       .  A
C75          H78   1.082       .  S
C76          C77   1.378       .  A
C76          H79   1.083       .  S
C77         C414   1.467       .  S
Fe80         O96   2.096       .  S
Fe80         O86   2.035       .  S
Fe80         O93   2.042       .  S
Fe80         O85   2.092       .  S
Fe80       O1003   1.953       .  S
Fe81         O84   2.087       .  S
Fe81         O97   2.071       .  S
Fe81       O1000   2.069   1_554  S
Fe81       O1004   2.091   1_554  S
Fe81         O91   1.963       .  S
Fe82        O100   2.036       .  S
Fe82         O87   2.078       .  S
Fe82         O94   2.083       .  S
Fe82         O83   2.045       .  S
Fe82         O91   1.960       .  S
O83          C90   1.267       .  A
O84          C98   1.272       .  A
O85        C1002   1.272       .  A
O86        C1001   1.265       .  A
O87          C99   1.274       .  A
O88        Fe993   2.069       .  S
O88         C101   1.268       .  A
C89         C277   1.477       .  S
C89          O94   1.270       .  A
C89         O998   1.265   1_554  A
C90         C894   1.482       .  S
C90         O997   1.273   1_554  A
O91        Fe992   1.955   1_554  S
O92        Fe993   2.088       .  S
O92          C95   1.274       .  A
O93          C95   1.266       .  A
C95         C405   1.464       .  S
O96         C101   1.275       .  A
O97          C99   1.270       .  A
C98         C309   1.463       .  S
C98         O100   1.263       .  A
C99         C382   1.504       .  S
C101        C341   1.510       .  S
N102        C106   1.358       .  A
N102        C103   1.364       .  A
N102        C350   1.450       .  S
C103        C693   1.487       .  S
C103        C104   1.387       .  A
C104        C105   1.363       .  A
C104        H107   1.083       .  S
C105        C106   1.375       .  A
C105        H108   1.083       .  S
C106        C318   1.469       .  S
N109        C113   1.355       .  A
N109        C110   1.350       .  A
N109        C245   1.437       .  S
C110        C286   1.470       .  S
C110        C111   1.382       .  A
C111        C112   1.374       .  A
C111        H114   1.082       .  S
C112        C113   1.382       .  A
C112        H115   1.081       .  S
C113        C222   1.473       .  S
Fe116       O132   2.041       .  S
Fe116       O122   2.083       .  S
Fe116       O129   2.055       .  S
Fe116       O121   2.050       .  S
Fe116       O127   1.955       .  S
Fe117       O120   2.063       .  S
Fe117       O124   2.103       .  S
Fe117       O128   2.056       .  S
Fe117       O133   2.097       .  S
Fe117       O127   1.966       .  S
Fe118       O136   2.063       .  S
Fe118       O123   2.062       .  S
Fe118       O130   2.072       .  S
Fe118       O119   2.065       .  S
Fe118       O127   1.961       .  S
O119        C126   1.266       .  A
O120        C134   1.265       .  A
O121        C126   1.259       .  A
O122        C125   1.273       .  A
O123        C135   1.273       .  A
O124        C137   1.276       .  A
C125        C213   1.490       .  S
C125        O130   1.276       .  A
C126        C149   1.485       .  S
O128        C131   1.266       .  A
O129        C131   1.264       .  A
C131        C446   1.485       .  S
O132        C137   1.269       .  A
O133        C135   1.280       .  A
C134        C254   1.490       .  S
C134        O136   1.266       .  A
C135        C181   1.487       .  S
C137        C478   1.508       .  S
N138        C142   1.356       .  A
N138        C139   1.360       .  A
N138       C1102   1.447       .  S
C139        C510   1.480       .  S
C139        C140   1.385       .  A
C140        C141   1.368       .  A
C140        H143   1.082       .  S
C141        C142   1.378       .  A
C141        H144   1.083       .  S
C142        C158   1.469       .  S
C145        C146   1.397       .  A
C145        C150   1.405       .  A
C145        H155   1.084       .  S
C146        C151   1.476       .  S
C146        C147   1.414       .  A
C147        C148   1.402       .  A
C147        C152   1.522       .  S
C148        C149   1.406       .  A
C148        H153   1.084       .  S
C149        C150   1.426       .  A
C150        C154   1.521       .  S
C151        C156   1.413       .  A
C151        C160   1.404       .  A
C152        F168   1.382       .  S
C152        F169   1.383       .  S
C152        F170   1.385       .  S
C154        F165   1.385       .  S
C154        F166   1.380       .  S
C154        F167   1.383       .  S
C156        C157   1.400       .  A
C156        C161   1.519       .  S
C157        C158   1.401       .  A
C157        H162   1.083       .  S
C158        C159   1.410       .  A
C159        C160   1.404       .  A
C159        C163   1.515       .  S
C160        H164   1.083       .  S
C161        F174   1.385       .  S
C161        F175   1.382       .  S
C161        F176   1.382       .  S
C163        F171   1.382       .  S
C163        F172   1.383       .  S
C163        F173   1.385       .  S
C177        C178   1.402       .  A
C177        C182   1.410       .  A
C177        H187   1.084       .  S
C178        C183   1.486       .  S
C178        C179   1.418       .  A
C179        C180   1.407       .  A
C179        C184   1.522       .  S
C180        C181   1.404       .  A
C180        H185   1.084       .  S
C181        C182   1.422       .  A
C182        C186   1.520       .  S
C183        C188   1.415       .  A
C183        C192   1.399       .  A
C184        F200   1.381       .  S
C184        F201   1.381   1_554  S
C184        F202   1.385       .  S
C186        F197   1.385       .  S
C186        F198   1.382       .  S
C186        F199   1.383       .  S
C188        C189   1.412       .  A
C188        C193   1.518       .  S
C189        C190   1.406       .  A
C189       H1106   1.081   1_554  S
C190       N1050   1.445   1_554  S
C190        C191   1.418       .  A
C191        C192   1.405       .  A
C191        C195   1.515       .  S
C192        H196   1.083       .  S
C193        F206   1.385       .  S
C193        F207   1.382       .  S
C193        F208   1.381       .  S
H194       C1101   1.080       .  S
C195        F203   1.384       .  S
C195        F204   1.380       .  S
C195        F205   1.382   1_554  S
C209        C210   1.394       .  A
C209        C214   1.404       .  A
C209        H219   1.085       .  S
C210        C215   1.480       .  S
C210        C211   1.415       .  A
C211        C212   1.408       .  A
C211        C216   1.519       .  S
C212        C213   1.406       .  A
C212        H217   1.084       .  S
C213        C214   1.427       .  A
C214        C218   1.517       .  S
C215        C220   1.416       .  A
C215        C224   1.400       .  A
C216        F232   1.383       .  S
C216        F233   1.382       .  S
C216        F234   1.384       .  S
C218        F229   1.385       .  S
C218        F230   1.382       .  S
C218        F231   1.382       .  S
C220        C221   1.403       .  A
C220        C225   1.520       .  S
C221        C222   1.400       .  A
C221        H226   1.082       .  S
C222        C223   1.417       .  A
C223        C224   1.406       .  A
C223        C227   1.518       .  S
C224        H228   1.084       .  S
C225        F238   1.385       .  S
C225        F239   1.382       .  S
C225        F240   1.382       .  S
C227        F235   1.379       .  S
C227        F236   1.382       .  S
C227        F237   1.384       .  S
C241        C242   1.402       .  A
C241       C1158   1.405   1_554  A
C241        H251   1.084       .  S
C242        C247   1.482       .  S
C242        C243   1.415       .  A
C243        C244   1.404   1_554  A
C243        C248   1.519       .  S
C244       C1157   1.401       .  A
C244        H249   1.081       .  S
C245        C246   1.416       .  A
C245       C1156   1.401       .  A
C246       C1153   1.404       .  A
C246        C250   1.515       .  S
C247        C252   1.413       .  A
C247        C256   1.398       .  A
C248        F264   1.382       .  S
C248        F265   1.382       .  S
C248        F266   1.384       .  S
C250        F261   1.384       .  S
C250        F262   1.383       .  S
C250        F263   1.381       .  S
C252        C253   1.407       .  A
C252        C257   1.520       .  S
C253        C254   1.409       .  A
C253        H258   1.086       .  S
C254        C255   1.425       .  A
C255        C256   1.406       .  A
C255        C259   1.520       .  S
C256        H260   1.088       .  S
C257        F270   1.385       .  S
C257        F271   1.383       .  S
C257        F272   1.382       .  S
C259        F267   1.385       .  S
C259        F268   1.383       .  S
C259        F269   1.382       .  S
C273        C274   1.400       .  A
C273        C278   1.398       .  A
C273        H283   1.084       .  S
C274        C279   1.474       .  S
C274       C1187   1.412       .  A
C275        C276   1.409       .  A
C275       C1186   1.414       .  A
C275        C280   1.517       .  S
C276        C277   1.406       .  A
C276        H281   1.083       .  S
C277       C1190   1.418   1_554  A
C278       C1189   1.419       .  A
C278        C282   1.522       .  S
C279        C288   1.402       .  A
C279       C1196   1.415       .  A
C280        F297   1.383       .  S
C280        F298   1.385       .  S
C280       F1208   1.381       .  S
C282        F294   1.382       .  S
C282        F295   1.384       .  S
C282       F1205   1.385       .  S
C284        C285   1.405   1_554  A
C284       C1191   1.417       .  A
C284        C289   1.516       .  S
C285       C1198   1.402       .  A
C285        H290   1.083       .  S
C286        C287   1.413       .  A
C286       C1197   1.401       .  A
C287        C288   1.398       .  A
C287        C291   1.518       .  S
C288        H292   1.085       .  S
C289        F302   1.383       .  S
C289        F303   1.383   1_554  S
C289        F304   1.383       .  S
C291        F299   1.383       .  S
C291        F300   1.383       .  S
C291        F301   1.384       .  S
F293       C1194   1.385       .  S
F296       C1192   1.382       .  S
C305        C306   1.403       .  A
C305        C310   1.401       .  A
C305        H315   1.084       .  S
C306        C311   1.471       .  S
C306        C307   1.417       .  A
C307        C308   1.404       .  A
C307        C312   1.520       .  S
C308        C309   1.402       .  A
C308        H313   1.085       .  S
C309        C310   1.410       .  A
C310        C314   1.517       .  S
C311        C316   1.415       .  A
C311        C320   1.396       .  A
C312        F328   1.383       .  S
C312        F329   1.383       .  S
C312        F330   1.383       .  S
C314        F325   1.383       .  S
C314        F326   1.382       .  S
C314        F327   1.384       .  S
C316        C317   1.405       .  A
C316        C321   1.517       .  S
C317        C318   1.401       .  A
C317        H322   1.083       .  S
C318        C319   1.419       .  A
C319        C320   1.398       .  A
C319        C323   1.522       .  S
C320        H324   1.083       .  S
C321        F334   1.385       .  S
C321        F335   1.382       .  S
C321        F336   1.383       .  S
C323        F331   1.380       .  S
C323        F332   1.378       .  S
C323        F333   1.385       .  S
C337        C338   1.400       .  A
C337        C342   1.412       .  A
C337        H347   1.082       .  S
C338        C343   1.495       .  S
C338        C339   1.415       .  A
C339        C340   1.411       .  A
C339        C344   1.521       .  S
C340        C341   1.413       .  A
C340        H345   1.081       .  S
C341        C342   1.431       .  A
C342        C346   1.521       .  S
C343        C348   1.417       .  A
C343        C352   1.403       .  A
C344        F360   1.382       .  S
C344        F361   1.383       .  S
C344        F362   1.384       .  S
C346        F357   1.383       .  S
C346        F358   1.385       .  S
C346        F359   1.382       .  S
C348        C349   1.409       .  A
C348        C353   1.519       .  S
C349        C350   1.406       .  A
C349        H354   1.078       .  S
C350        C351   1.419       .  A
C351        C352   1.410       .  A
C351        C355   1.517       .  S
C352        H356   1.082       .  S
C353        F366   1.385       .  S
C353        F367   1.382       .  S
C353        F368   1.383       .  S
C355        F363   1.378       .  S
C355        F364   1.384       .  S
C355        F365   1.385       .  S
C369        C370   1.399       .  A
C369        C374   1.404       .  A
C369        H379   1.084       .  S
C370        C375   1.483       .  S
C370        C371   1.416       .  A
C371        C372   1.407       .  A
C371        C376   1.518       .  S
C372        C373   1.403       .  A
C372        H377   1.083       .  S
C373        C374   1.416       .  A
C374        C378   1.514       .  S
C375        C380   1.412       .  A
C375        C384   1.398       .  A
C376        F392   1.382       .  S
C376        F393   1.382       .  S
C376        F394   1.385       .  S
C378        F389   1.385       .  S
C378        F390   1.380       .  S
C378        F391   1.383       .  S
C380        C381   1.405       .  A
C380        C385   1.523       .  S
C381        C382   1.413       .  A
C381        H386   1.082       .  S
C382        C383   1.429       .  A
C383        C384   1.410       .  A
C383        C387   1.518       .  S
C384        H388   1.083       .  S
C385        F398   1.385       .  S
C385        F399   1.382       .  S
C385        F400   1.382       .  S
C387        F395   1.385       .  S
C387        F396   1.378       .  S
C387        F397   1.383       .  S
C401        C402   1.401       .  A
C401        C406   1.399       .  A
C401        H411   1.086       .  S
C402        C407   1.473       .  S
C402        C403   1.412       .  A
C403        C404   1.405       .  A
C403        C408   1.519       .  S
C404        C405   1.405       .  A
C404        H409   1.084       .  S
C405        C406   1.416       .  A
C406        C410   1.517       .  S
C407        C412   1.417       .  A
C407        C416   1.399       .  A
C408        F424   1.382       .  S
C408        F425   1.381       .  S
C408        F426   1.385       .  S
C410        F421   1.383       .  S
C410        F422   1.384       .  S
C410        F423   1.380       .  S
C412        C413   1.404       .  A
C412        C417   1.519       .  S
C413        C414   1.399       .  A
C413        H418   1.083       .  S
C414        C415   1.415       .  A
C415        C416   1.398       .  A
C415        C419   1.518       .  S
C416        H420   1.085       .  S
C417        F430   1.385       .  S
C417        F431   1.382       .  S
C417        F432   1.381       .  S
C419        F427   1.383       .  S
C419        F428   1.383       .  S
C419        F429   1.384       .  S
C433        C434   1.401       .  A
C433        C438   1.397       .  A
C433        H443   1.084       .  S
C434        C439   1.477       .  S
C434        C435   1.416       .  A
C435        C436   1.402   1_565  A
C435        C440   1.516       .  S
C436        C437   1.403       .  A
C436        H441   1.083       .  S
C437        C438   1.415   1_545  A
C438        C442   1.518       .  S
C439        C444   1.411       .  A
C439        C448   1.402       .  A
C440        F456   1.383       .  S
C440        F457   1.382       .  S
C440        F458   1.384   1_565  S
C442        F453   1.384       .  S
C442        F454   1.383       .  S
C442        F455   1.382   1_565  S
C444        C445   1.405       .  A
C444        C449   1.518       .  S
C445        C446   1.409       .  A
C445        H450   1.082       .  S
C446        C447   1.423       .  A
C447        C448   1.404       .  A
C447        C451   1.522       .  S
C448        H452   1.083       .  S
C449        F462   1.384       .  S
C449        F463   1.381       .  S
C449        F464   1.383       .  S
C451        F459   1.383       .  S
C451        F460   1.384       .  S
C451        F461   1.385       .  S
C465        C466   1.402       .  A
C465        C470   1.405       .  A
C465        H475   1.083       .  S
C466        C471   1.488       .  S
C466        C467   1.416       .  A
C467        C468   1.410       .  A
C467        C472   1.517       .  S
C468        C469   1.404       .  A
C468        H473   1.071       .  S
C469        C470   1.415       .  A
C470        C474   1.514       .  S
C471        C476   1.413       .  A
C471        C480   1.403       .  A
C472        F488   1.382       .  S
C472        F489   1.382       .  S
C472        F490   1.385       .  S
C474        F485   1.382       .  S
C474        F486   1.384       .  S
C474        F487   1.383       .  S
C476        C477   1.401       .  A
C476        C481   1.525       .  S
C477        C478   1.413       .  A
C477        H482   1.082       .  S
C478        C479   1.428       .  A
C479        C480   1.417       .  A
C479        C483   1.518       .  S
C480        H484   1.084       .  S
C481        F494   1.385       .  S
C481        F495   1.381       .  S
C481        F496   1.383       .  S
C483        F491   1.385       .  S
C483        F492   1.383       .  S
C483        F493   1.384       .  S
C497        C502   1.408       .  A
C497       C1410   1.401       .  A
C497        H507   1.086       .  S
C498       C1415   1.484       .  S
C498        C499   1.415       .  A
C498       C1409   1.401       .  A
C499        C500   1.405       .  A
C499        C504   1.517       .  S
C500        C501   1.409       .  A
C500        H505   1.087       .  S
C501       C1414   1.422       .  A
C502       C1413   1.428       .  A
C502        C506   1.520       .  S
C503       C1410   1.486       .  S
C503        C508   1.415       .  A
C503        C512   1.400       .  A
C504        F520   1.383       .  S
C504        F521   1.384       .  S
C504        F522   1.383       .  S
C506        F517   1.383       .  S
C506        F518   1.385       .  S
C506        F519   1.383       .  S
C508        C509   1.412       .  A
C508        C513   1.517       .  S
C509        C510   1.408       .  A
C509        H514   1.083       .  S
C510        C511   1.420       .  A
C511        C512   1.398       .  A
C511        C515   1.520       .  S
C512       H1428   1.085       .  S
C513        F526   1.385       .  S
C513        F527   1.382       .  S
C513       F1440   1.383       .  S
C515        F523   1.383       .  S
C515        F524   1.380       .  S
C515       F1437   1.383       .  S
H516       C1424   1.085       .  S
F525       C1427   1.383       .  S
F528       C1425   1.383       .  S
C529        C530   1.401       .  A
C529        C534   1.404       .  A
C529        H539   1.086       .  S
C530        C535   1.481       .  S
C530        C531   1.414       .  A
C531        C532   1.406       .  A
C531        C536   1.517       .  S
C532        C533   1.402       .  A
C532        H537   1.084       .  S
C533        C534   1.417       .  A
C534        C538   1.515   1_655  S
C535        C540   1.418       .  A
C535        C544   1.402       .  A
C536        F552   1.382       .  S
C536        F553   1.383       .  S
C536        F554   1.384       .  S
C538        F549   1.378       .  S
C538        F550   1.383   1_455  S
C538        F551   1.383       .  S
C540        C541   1.406       .  A
C540        C545   1.522       .  S
C541        C542   1.406       .  A
C541        H546   1.085       .  S
C542        C543   1.419       .  A
C543        C544   1.408       .  A
C543        C547   1.519       .  S
C544        H548   1.084       .  S
C545        F558   1.383       .  S
C545        F559   1.384       .  S
C545        F560   1.382       .  S
C547        F555   1.382       .  S
C547        F556   1.383       .  S
C547        F557   1.385       .  S
C561        C562   1.399       .  A
C561        C566   1.402       .  A
C561        H571   1.085       .  S
C562        C567   1.487       .  S
C562        C563   1.415       .  A
C563        C564   1.410       .  A
C563        C568   1.518       .  S
C564        C565   1.406       .  A
C564        H569   1.083       .  S
C565        C566   1.421       .  A
C566        C570   1.519   1_655  S
C567        C572   1.417       .  A
C567        C576   1.401       .  A
C568        F584   1.382       .  S
C568        F585   1.383       .  S
C568        F586   1.385       .  S
C570        F581   1.384       .  S
C570        F582   1.383   1_455  S
C570        F583   1.378       .  S
C572        C573   1.404       .  A
C572        C577   1.520       .  S
C573        C574   1.403       .  A
C573        H578   1.084       .  S
C574        C575   1.426       .  A
C575        C576   1.410       .  A
C575        C579   1.521       .  S
C576        H580   1.083       .  S
C577        F590   1.385       .  S
C577        F591   1.381       .  S
C577        F592   1.383       .  S
C579        F587   1.385       .  S
C579        F588   1.380       .  S
C579        F589   1.383       .  S
C593        C594   1.399   1_545  A
C593        C598   1.405       .  A
C593        H603   1.090       .  S
C594        C599   1.487       .  S
C594        C595   1.415   1_565  A
C595        C596   1.406       .  A
C595        C600   1.517   1_545  S
C596        C597   1.401       .  A
C596        H601   1.089       .  S
C597        C598   1.423       .  A
C598        C602   1.518       .  S
C599        C604   1.413       .  A
C599        C608   1.399       .  A
C600        F616   1.383       .  S
C600        F617   1.382       .  S
C600        F618   1.385       .  S
C602        F613   1.384       .  S
C602        F614   1.383       .  S
C602        F615   1.379       .  S
C604        C605   1.407       .  A
C604        C609   1.522       .  S
C605        C606   1.412       .  A
C605        H610   1.082       .  S
C606        C607   1.431       .  A
C607        C608   1.412       .  A
C607        C611   1.521       .  S
C608        H612   1.083       .  S
C609        F622   1.384       .  S
C609        F623   1.383       .  S
C609        F624   1.382       .  S
C611        F619   1.383       .  S
C611        F620   1.383       .  S
C611        F621   1.385       .  S
C625        C626   1.396   1_545  A
C625        C630   1.398       .  A
C625        H635   1.084       .  S
C626        C631   1.476       .  S
C626        C627   1.416       .  A
C627        C628   1.408   1_565  A
C627        C632   1.516       .  S
C628        C629   1.402       .  A
C628        H633   1.082       .  S
C629        C630   1.420       .  A
C630        C634   1.521       .  S
C631        C636   1.414       .  A
C631        C640   1.403       .  A
C632        F648   1.382       .  S
C632        F649   1.382       .  S
C632        F650   1.385       .  S
C634        F645   1.385       .  S
C634        F646   1.380       .  S
C634        F647   1.379       .  S
C636        C637   1.402       .  A
C636        C641   1.521       .  S
C637        C638   1.402       .  A
C637        H642   1.082       .  S
C638        C639   1.416       .  A
C639        C640   1.404       .  A
C639        C643   1.518       .  S
C640        H644   1.085       .  S
C641        F654   1.385       .  S
C641        F655   1.381       .  S
C641        F656   1.382       .  S
C643        F651   1.384       .  S
C643        F652   1.381       .  S
C643        F653   1.383       .  S
C657        C658   1.401       .  A
C657        C662   1.403       .  A
C657        H667   1.085       .  S
C658        C663   1.473   1_554  S
C658       C1571   1.409   1_554  A
C659        C660   1.405       .  A
C659       C1570   1.411       .  A
C659        C664   1.519       .  S
C660       C1573   1.408       .  A
C660        H665   1.084       .  S
C661        C662   1.418       .  A
C661       C1572   1.409   1_554  A
C662        C666   1.520       .  S
C663        C672   1.404       .  A
C663       C1580   1.414   1_556  A
C664        F680   1.382       .  S
C664        F681   1.381       .  S
C664        F682   1.384       .  S
C666        F677   1.385       .  S
C666        F678   1.384       .  S
C666        F679   1.382       .  S
C668        C669   1.402       .  A
C668       C1575   1.415       .  A
C668        C673   1.521       .  S
C669       C1582   1.403       .  A
C669        H674   1.082       .  S
C670        C671   1.408       .  A
C670       C1581   1.402   1_556  A
C671        C672   1.405       .  A
C671        C675   1.515       .  S
C672        H676   1.082       .  S
C673        F686   1.385       .  S
C673        F687   1.382       .  S
C673        F688   1.381       .  S
C675        F683   1.383       .  S
C675        F684   1.383       .  S
C675        F685   1.384       .  S
C689        C690   1.399       .  A
C689        C694   1.407   1_655  A
C689        H699   1.083       .  S
C690        C695   1.481       .  S
C690        C691   1.412       .  A
C691        C692   1.404   1_655  A
C691        C696   1.519       .  S
C692        C693   1.408       .  A
C692        H697   1.083       .  S
C693        C694   1.420       .  A
C694        C698   1.513       .  S
C695        C700   1.416       .  A
C695        C704   1.395       .  A
C696        F712   1.382       .  S
C696        F713   1.383       .  S
C696        F714   1.384       .  S
C698        F709   1.377       .  S
C698        F710   1.385       .  S
C698        F711   1.381       .  S
C700        C701   1.405       .  A
C700        C705   1.522       .  S
C701        C702   1.407       .  A
C701        H706   1.084       .  S
C702        C703   1.431       .  A
C703        C704   1.406       .  A
C703        C707   1.523       .  S
C704        H708   1.085       .  S
C705        F718   1.385       .  S
C705        F719   1.382       .  S
C705        F720   1.383       .  S
C707        F715   1.383       .  S
C707        F716   1.384       .  S
C707        F717   1.385       .  S
C721        C722   1.394       .  A
C721        C726   1.399       .  A
C721        H731   1.083       .  S
C722        C727   1.469       .  S
C722        C723   1.409       .  A
C723        C724   1.404       .  A
C723        C728   1.517       .  S
C724        C725   1.405       .  A
C724        H729   1.081       .  S
C725        C726   1.418       .  A
C726        C730   1.514       .  S
C727        C732   1.418       .  A
C727        C736   1.396       .  A
C728        F744   1.383       .  S
C728        F745   1.382       .  S
C728        F746   1.384       .  S
C730        F741   1.379       .  S
C730        F742   1.385       .  S
C730        F743   1.380       .  S
C732        C733   1.398       .  A
C732        C737   1.524       .  S
C733        C734   1.400       .  A
C733        H738   1.085       .  S
C734        C735   1.424       .  A
C735        C736   1.404       .  A
C735        C739   1.520       .  S
C736        H740   1.086       .  S
C737        F750   1.385       .  S
C737        F751   1.382       .  S
C737        F752   1.381       .  S
C739        F747   1.384       .  S
C739        F748   1.383       .  S
C739        F749   1.385       .  S
C753        C754   1.397       .  A
C753        C758   1.405       .  A
C753        H763   1.087       .  S
C754        C759   1.474       .  S
C754        C755   1.415       .  A
C755        C756   1.400       .  A
C755        C760   1.520       .  S
C756        C757   1.402       .  A
C756        H761   1.087       .  S
C757        C758   1.425       .  A
C758        C762   1.521       .  S
C759        C764   1.411       .  A
C759        C768   1.403       .  A
C760        F776   1.382       .  S
C760        F777   1.382       .  S
C760        F778   1.385       .  S
C762        F773   1.383       .  S
C762        F774   1.385       .  S
C762        F775   1.382       .  S
C764        C765   1.401       .  A
C764        C769   1.520       .  S
C765        C766   1.406       .  A
C765        H770   1.082       .  S
C766        C767   1.413       .  A
C767        C768   1.402       .  A
C767        C771   1.517       .  S
C768        H772   1.085       .  S
C769        F782   1.385       .  S
C769        F783   1.382       .  S
C769        F784   1.382       .  S
C771        F779   1.383       .  S
C771        F780   1.381       .  S
C771        F781   1.383       .  S
C785        C786   1.400       .  A
C785        C790   1.407       .  A
C785        H795   1.083       .  S
C786        C791   1.486       .  S
C786        C787   1.417       .  A
C787        C788   1.409       .  A
C787        C792   1.520       .  S
C788        C789   1.407       .  A
C788        H793   1.083       .  S
C789        C790   1.422       .  A
C790        C794   1.518       .  S
C791        C796   1.416       .  A
C791        C800   1.398       .  A
C792        F808   1.382       .  S
C792        F809   1.382       .  S
C792        F810   1.384       .  S
C794        F805   1.385       .  S
C794        F806   1.383       .  S
C794        F807   1.384       .  S
C796        C797   1.413       .  A
C796        C801   1.516       .  S
C797        C798   1.404       .  A
C797        H802   1.081       .  S
C798        N942   1.440       .  S
C798        C799   1.419       .  A
C799        C800   1.400       .  A
C799       C1715   1.518       .  S
C800        H804   1.085       .  S
C801        F814   1.384       .  S
C801        F815   1.382       .  S
C801        F816   1.382       .  S
C803       C1711   1.518       .  S
C803        F812   1.379       .  S
C803        F813   1.383       .  S
C803       F1723   1.384       .  S
F811       C1715   1.384       .  S
C817        C818   1.399       .  A
C817        C822   1.410       .  A
C817        H827   1.083       .  S
C818        C823   1.490       .  S
C818        C819   1.416       .  A
C819        C820   1.411       .  A
C819        C824   1.521       .  S
C820        C821   1.410       .  A
C820        H825   1.082       .  S
C821        C822   1.429       .  A
C822        C826   1.522       .  S
C823        C828   1.415       .  A
C823        C832   1.396       .  A
C824        F840   1.382       .  S
C824        F841   1.380       .  S
C824        F842   1.384       .  S
C826        F837   1.385       .  S
C826        F838   1.384       .  S
C826        F839   1.382       .  S
C828        C829   1.412       .  A
C828        C833   1.518       .  S
C829        C830   1.411       .  A
C829        H834   1.083       .  S
C830        C831   1.425       .  A
C831        C832   1.405       .  A
C831        C835   1.509       .  S
C832        H836   1.086       .  S
C833        F846   1.385       .  S
C833        F847   1.382       .  S
C833        F848   1.382       .  S
C835        F843   1.384       .  S
C835        F844   1.371   1_554  S
C835        F845   1.376   1_554  S
C849        C850   1.403       .  A
C849        C854   1.407       .  A
C849        H859   1.083       .  S
C850        C855   1.482       .  S
C850        C851   1.417       .  A
C851        C852   1.404       .  A
C851        C856   1.517       .  S
C852        C853   1.399       .  A
C852        H857   1.084       .  S
C853        C854   1.413       .  A
C854        C858   1.517       .  S
C855        C860   1.413       .  A
C855        C864   1.406       .  A
C856        F872   1.383       .  S
C856        F873   1.381       .  S
C856        F874   1.385       .  S
C858        F869   1.384       .  S
C858        F870   1.382       .  S
C858        F871   1.383       .  S
C860        C861   1.400       .  A
C860        C865   1.520       .  S
C861        C862   1.404       .  A
C861        H866   1.084       .  S
C862        C863   1.413       .  A
C863        C864   1.411       .  A
C863        C867   1.515       .  S
C864        H868   1.083       .  S
C865        F878   1.385       .  S
C865        F879   1.382       .  S
C865        F880   1.382       .  S
C867        F875   1.384       .  S
C867       F1788   1.384       .  S
C867       F1789   1.379       .  S
F876       C1779   1.383       .  S
F877       C1779   1.377   1_554  S
C881        C882   1.395       .  A
C881        C886   1.405       .  A
C881        H891   1.083       .  S
C882        C887   1.481       .  S
C882       C1795   1.415       .  A
C883        C884   1.407       .  A
C883       C1794   1.415       .  A
C883        C888   1.517       .  S
C884       C1797   1.407       .  A
C884        H889   1.085       .  S
C885        C886   1.423       .  A
C885       C1796   1.408       .  A
C886        C890   1.508   1_554  S
C887        C892   1.411       .  A
C887       C1808   1.402   1_554  A
C888        F904   1.383       .  S
C888        F906   1.384       .  S
C888       F1817   1.382       .  S
C890        F901   1.385       .  S
C890        F902   1.382       .  S
C890        F903   1.377   1_556  S
C892        C893   1.405       .  A
C892        C897   1.517       .  S
C893        C894   1.407       .  A
C893        H898   1.083       .  S
C894       C1807   1.418   1_554  A
C895        C896   1.408       .  A
C895       C1806   1.419       .  A
C895        C899   1.517       .  S
C896       C1799   1.403       .  A
C896        H900   1.083       .  S
C897        F910   1.385       .  S
C897        F911   1.383       .  S
C897        F912   1.382       .  S
C899        F907   1.385       .  S
C899        F908   1.382       .  S
C899        F909   1.380       .  S
F905       C1800   1.382       .  S
N913        C914   1.368       .  A
N913       C1742   1.454       .  S
C914       C1797   1.493       .  S
C915        C916   1.365       .  A
C915        H918   1.082       .  S
C916        C917   1.381       .  A
C916        H919   1.082       .  S
C917       C1774   1.480       .  S
Fe920       O936   2.034       .  S
Fe920       O926   2.117       .  S
Fe920       O933   2.107       .  S
Fe920       O925   2.041       .  S
Fe920       O931   1.945       .  S
Fe921       O924   2.034       .  S
Fe921       O928   2.095       .  S
Fe921       O932   2.028       .  S
Fe921       O937   2.109       .  S
Fe921       O931   1.943       .  S
Fe922       O940   2.089       .  S
Fe922       O927   2.054       .  S
Fe922       O934   2.049       .  S
Fe922       O923   2.086       .  S
Fe922       O931   1.940       .  S
O923        C930   1.274       .  A
O924        C938   1.261       .  A
O925        C930   1.262       .  A
O926        C929   1.281       .  A
O927        C939   1.268       .  A
O928        C941   1.276       .  A
C929       C1733   1.508       .  S
C929        O934   1.265       .  A
C930       C1669   1.479       .  S
O932        C935   1.261       .  A
O933        C935   1.280       .  A
C935       C1614   1.497       .  S
O936        C941   1.261       .  A
O937        C939   1.278       .  A
C938       C1765   1.465       .  S
C938        O940   1.272       .  A
C939       C1701   1.493       .  S
C941       C1646   1.486       .  S
N942        C946   1.352       .  A
N942        C943   1.350       .  A
C943       C1582   1.472       .  S
C943        C944   1.386       .  A
C944        C945   1.375       .  A
C944        H947   1.082       .  S
C945        C946   1.380       .  A
C945        H948   1.082       .  S
C946       C1678   1.473       .  S
N949        C953   1.355       .  A
N949        C950   1.359       .  A
N949       C1509   1.440       .  S
C950       C1637   1.477       .  S
C950        C951   1.383       .  A
C951        C952   1.369       .  A
C951        H954   1.083       .  S
C952        C953   1.380       .  A
C952        H955   1.082       .  S
C953       C1541   1.475       .  S
Fe956       O972   2.077       .  S
Fe956       O962   2.071       .  S
Fe956       O969   2.072       .  S
Fe956       O961   2.068       .  S
Fe956       O967   1.976       .  S
Fe957       O960   2.076       .  S
Fe957       O964   2.037   1_556  S
Fe957       O968   2.061   1_556  S
Fe957       O973   2.048       .  S
Fe958       O970   2.071       .  S
Fe958       O959   2.075       .  S
Fe958       O967   1.977       .  S
O959        C966   1.272       .  A
O960        C974   1.268       .  A
O961        C966   1.274       .  A
O962        C965   1.268       .  A
O963        C975   1.267       .  A
C965       C1454   1.490       .  S
C965        O970   1.266       .  A
C966       C1518   1.496       .  S
O969        C971   1.268       .  A
C971       C1413   1.500       .  S
O972        C977   1.273       .  A
O973        C975   1.265       .  A
C974       C1486   1.500       .  S
C974        O976   1.275   1_556  A
C975       C1550   1.463       .  S
C977       C1573   1.478       .  S
N978        C982   1.360       .  A
N978        C979   1.359       .  A
N978       C1445   1.442   1_455  S
C979       C1381   1.485       .  S
C979        C980   1.384       .  A
C980        C981   1.373       .  A
C980        H983   1.082       .  S
C981        C982   1.381       .  A
C981        H984   1.082       .  S
C982       C1477   1.479   1_455  S
N985        C989   1.353       .  A
N985        C986   1.355       .  A
N985       C1285   1.442       .  S
C986       C1349   1.474       .  S
C986        C987   1.386       .  A
C987        C988   1.370       .  A
C987        H990   1.082       .  S
C988        C989   1.378       .  A
C988        H991   1.082       .  S
C989       C1326   1.469       .  S
Fe992      O1008   2.088       .  S
Fe992       O998   2.042       .  S
Fe992      O1005   2.042       .  S
Fe992       O997   2.091       .  S
Fe993       O996   2.082       .  S
Fe993      O1009   2.068       .  S
Fe993      O1003   1.957       .  S
Fe994      O1012   2.040       .  S
Fe994       O999   2.085       .  S
Fe994      O1006   2.084       .  S
Fe994       O995   2.046       .  S
Fe994      O1003   1.958       .  S
O995       C1002   1.266       .  A
O996       C1010   1.271       .  A
O999       C1011   1.275       .  A
O1000      C1013   1.269       .  A
C1001      C1189   1.471       .  S
C1001      O1006   1.272       .  A
C1002      C1806   1.486       .  S
O1004      C1007   1.273       .  A
O1005      C1007   1.265       .  A
C1007      C1317   1.466       .  S
O1008      C1013   1.275       .  A
O1009      C1011   1.270       .  A
C1010      C1221   1.463       .  S
C1010      O1012   1.263       .  A
C1011      C1294   1.505       .  S
C1013      C1253   1.506       .  S
N1014      C1018   1.360       .  A
N1014      C1015   1.364       .  A
N1014      C1262   1.451       .  S
C1015      C1605   1.491       .  S
C1015      C1016   1.389       .  A
C1016      C1017   1.364       .  A
C1016      H1019   1.083       .  S
C1017      C1018   1.375       .  A
C1017      H1020   1.083       .  S
C1018      C1230   1.468       .  S
N1021      C1025   1.358       .  A
N1021      C1022   1.353       .  A
N1021      C1157   1.438       .  S
C1022      C1198   1.477       .  S
C1022      C1023   1.383       .  A
C1023      C1024   1.374       .  A
C1023      H1026   1.082       .  S
C1024      C1025   1.381       .  A
C1024      H1027   1.082       .  S
C1025      C1134   1.478       .  S
Fe1028     O1044   2.041       .  S
Fe1028     O1034   2.091       .  S
Fe1028     O1041   2.060       .  S
Fe1028     O1033   2.048       .  S
Fe1028     O1039   1.952       .  S
Fe1029     O1032   2.057       .  S
Fe1029     O1036   2.103       .  S
Fe1029     O1040   2.057       .  S
Fe1029     O1045   2.105       .  S
Fe1029     O1039   1.962       .  S
Fe1030     O1048   2.065       .  S
Fe1030     O1035   2.061       .  S
Fe1030     O1042   2.066       .  S
Fe1030     O1031   2.068       .  S
Fe1030     O1039   1.958       .  S
O1031      C1038   1.267       .  A
O1032      C1046   1.264       .  A
O1033      C1038   1.258       .  A
O1034      C1037   1.276       .  A
O1035      C1047   1.273       .  A
O1036      C1049   1.275       .  A
C1037      C1125   1.491       .  S
C1037      O1042   1.276       .  A
C1038      C1061   1.485       .  S
O1040      C1043   1.267       .  A
O1041      C1043   1.267       .  A
C1043      C1358   1.486       .  S
O1044      C1049   1.267       .  A
O1045      C1047   1.280       .  A
C1046      C1166   1.485       .  S
C1046      O1048   1.266       .  A
C1047      C1093   1.489       .  S
C1049      C1390   1.508       .  S
N1050      C1054   1.354       .  A
N1050      C1051   1.358       .  A
C1051      C1422   1.475   1_556  S
C1051      C1052   1.385       .  A
C1052      C1053   1.368       .  A
C1052      H1055   1.082       .  S
C1053      C1054   1.378       .  A
C1053      H1056   1.083       .  S
C1054      C1070   1.468       .  S
C1057      C1058   1.396       .  A
C1057      C1062   1.405       .  A
C1057      H1067   1.084       .  S
C1058      C1063   1.474       .  S
C1058      C1059   1.414       .  A
C1059      C1060   1.402       .  A
C1059      C1064   1.522       .  S
C1060      C1061   1.406       .  A
C1060      H1065   1.084       .  S
C1061      C1062   1.426       .  A
C1062      C1066   1.522       .  S
C1063      C1068   1.413       .  A
C1063      C1072   1.402       .  A
C1064      F1080   1.382       .  S
C1064      F1081   1.382       .  S
C1064      F1082   1.384       .  S
C1066      F1077   1.385       .  S
C1066      F1078   1.380       .  S
C1066      F1079   1.383       .  S
C1068      C1069   1.401       .  A
C1068      C1073   1.519       .  S
C1069      C1070   1.401       .  A
C1069      H1074   1.083       .  S
C1070      C1071   1.411       .  A
C1071      C1072   1.403       .  A
C1071      C1075   1.515       .  S
C1072      H1076   1.083       .  S
C1073      F1086   1.385       .  S
C1073      F1087   1.382       .  S
C1073      F1088   1.382       .  S
C1075      F1083   1.379       .  S
C1075      F1084   1.383       .  S
C1075      F1085   1.384       .  S
C1089      C1090   1.402       .  A
C1089      C1094   1.410       .  A
C1089      H1099   1.084       .  S
C1090      C1095   1.490       .  S
C1090      C1091   1.419       .  A
C1091      C1092   1.410       .  A
C1091      C1096   1.521       .  S
C1092      C1093   1.405       .  A
C1092      H1097   1.084       .  S
C1093      C1094   1.421       .  A
C1094      C1098   1.519       .  S
C1095      C1100   1.416       .  A
C1095      C1104   1.400       .  A
C1096      F1112   1.382       .  S
C1096      F1113   1.381       .  S
C1096      F1114   1.385       .  S
C1098      F1109   1.384       .  S
C1098      F1110   1.383       .  S
C1098      F1111   1.384       .  S
C1100      C1101   1.413       .  A
C1100      C1105   1.517       .  S
C1101      C1102   1.406       .  A
C1102      C1103   1.418       .  A
C1103      C1104   1.406       .  A
C1103      C1107   1.514       .  S
C1104      H1108   1.083       .  S
C1105      F1118   1.385       .  S
C1105      F1119   1.382       .  S
C1105      F1120   1.381       .  S
C1107      F1115   1.384       .  S
C1107      F1116   1.381       .  S
C1107      F1117   1.382       .  S
C1121      C1122   1.397       .  A
C1121      C1126   1.406       .  A
C1121      H1131   1.085       .  S
C1122      C1127   1.483       .  S
C1122      C1123   1.415       .  A
C1123      C1124   1.408       .  A
C1123      C1128   1.519       .  S
C1124      C1125   1.406       .  A
C1124      H1129   1.084       .  S
C1125      C1126   1.425       .  A
C1126      C1130   1.516       .  S
C1127      C1132   1.416       .  A
C1127      C1136   1.401       .  A
C1128      F1144   1.382       .  S
C1128      F1145   1.382       .  S
C1128      F1146   1.385       .  S
C1130      F1141   1.385       .  S
C1130      F1142   1.382       .  S
C1130      F1143   1.382       .  S
C1132      C1133   1.404       .  A
C1132      C1137   1.520       .  S
C1133      C1134   1.401       .  A
C1133      H1138   1.081       .  S
C1134      C1135   1.417       .  A
C1135      C1136   1.408       .  A
C1135      C1139   1.518       .  S
C1136      H1140   1.084       .  S
C1137      F1150   1.385       .  S
C1137      F1151   1.382       .  S
C1137      F1152   1.382       .  S
C1139      F1147   1.380       .  S
C1139      F1148   1.382       .  S
C1139      F1149   1.384       .  S
C1153      C1154   1.402       .  A
C1153      H1163   1.084       .  S
C1154      C1159   1.479       .  S
C1154      C1155   1.415       .  A
C1155      C1156   1.403       .  A
C1155      C1160   1.520       .  S
C1156      H1161   1.081       .  S
C1157      C1158   1.417       .  A
C1158      C1162   1.516       .  S
C1159      C1164   1.413       .  A
C1159      C1168   1.398       .  A
C1160      F1176   1.382       .  S
C1160      F1177   1.382       .  S
C1160      F1178   1.384       .  S
C1162      F1173   1.384       .  S
C1162      F1174   1.383       .  S
C1162      F1175   1.381       .  S
C1164      C1165   1.407       .  A
C1164      C1169   1.519       .  S
C1165      C1166   1.409       .  A
C1165      H1170   1.087       .  S
C1166      C1167   1.423       .  A
C1167      C1168   1.403       .  A
C1167      C1171   1.521       .  S
C1168      H1172   1.088       .  S
C1169      F1182   1.385       .  S
C1169      F1183   1.383       .  S
C1169      F1184   1.381       .  S
C1171      F1179   1.385       .  S
C1171      F1180   1.383       .  S
C1171      F1181   1.382       .  S
C1185      C1186   1.400   1_556  A
C1185      C1190   1.399       .  A
C1185      H1195   1.084       .  S
C1186      C1191   1.480       .  S
C1187      C1188   1.406       .  A
C1187      C1192   1.516       .  S
C1188      C1189   1.405       .  A
C1188      H1193   1.083       .  S
C1190      C1194   1.521       .  S
C1191      C1200   1.402   1_554  A
C1192      F1209   1.383       .  S
C1192      F1210   1.384       .  S
C1194      F1206   1.382       .  S
C1194      F1207   1.384       .  S
C1196      C1197   1.402       .  A
C1196      C1201   1.516       .  S
C1197      H1202   1.083       .  S
C1198      C1199   1.415       .  A
C1199      C1200   1.400       .  A
C1199      C1203   1.517       .  S
C1200      H1204   1.085   1_556  S
C1201      F1214   1.383       .  S
C1201      F1215   1.383       .  S
C1201      F1216   1.383       .  S
C1203      F1211   1.383       .  S
C1203      F1212   1.383       .  S
C1203      F1213   1.384       .  S
C1217      C1218   1.404       .  A
C1217      C1222   1.403       .  A
C1217      H1227   1.084       .  S
C1218      C1223   1.472       .  S
C1218      C1219   1.417       .  A
C1219      C1220   1.402       .  A
C1219      C1224   1.519       .  S
C1220      C1221   1.400       .  A
C1220      H1225   1.085       .  S
C1221      C1222   1.411       .  A
C1222      C1226   1.517       .  S
C1223      C1228   1.414       .  A
C1223      C1232   1.396       .  A
C1224      F1240   1.383       .  S
C1224      F1241   1.382       .  S
C1224      F1242   1.383       .  S
C1226      F1237   1.382       .  S
C1226      F1238   1.382       .  S
C1226      F1239   1.385       .  S
C1228      C1229   1.406       .  A
C1228      C1233   1.516       .  S
C1229      C1230   1.401       .  A
C1229      H1234   1.084       .  S
C1230      C1231   1.420       .  A
C1231      C1232   1.396       .  A
C1231      C1235   1.520       .  S
C1232      H1236   1.085       .  S
C1233      F1246   1.385       .  S
C1233      F1247   1.382       .  S
C1233      F1248   1.383       .  S
C1235      F1243   1.383       .  S
C1235      F1244   1.379       .  S
C1235      F1245   1.384       .  S
C1249      C1250   1.400       .  A
C1249      C1254   1.411       .  A
C1249      H1259   1.082       .  S
C1250      C1255   1.491       .  S
C1250      C1251   1.414       .  A
C1251      C1252   1.409       .  A
C1251      C1256   1.521       .  S
C1252      C1253   1.412       .  A
C1252      H1257   1.081       .  S
C1253      C1254   1.430       .  A
C1254      C1258   1.521       .  S
C1255      C1260   1.416       .  A
C1255      C1264   1.400       .  A
C1256      F1272   1.382       .  S
C1256      F1273   1.383       .  S
C1256      F1274   1.384       .  S
C1258      F1269   1.383       .  S
C1258      F1270   1.385       .  S
C1258      F1271   1.382       .  S
C1260      C1261   1.408       .  A
C1260      C1265   1.520       .  S
C1261      C1262   1.409       .  A
C1261      H1266   1.082       .  S
C1262      C1263   1.421       .  A
C1263      C1264   1.408       .  A
C1263      C1267   1.517       .  S
C1264      H1268   1.083       .  S
C1265      F1278   1.385       .  S
C1265      F1279   1.382       .  S
C1265      F1280   1.383       .  S
C1267      F1275   1.379       .  S
C1267      F1276   1.383       .  S
C1267      F1277   1.385       .  S
C1281      C1282   1.401       .  A
C1281      C1286   1.407       .  A
C1281      H1291   1.084       .  S
C1282      C1287   1.485       .  S
C1282      C1283   1.416       .  A
C1283      C1284   1.405       .  A
C1283      C1288   1.518       .  S
C1284      C1285   1.401       .  A
C1284      H1289   1.081       .  S
C1285      C1286   1.416       .  A
C1286      C1290   1.515       .  S
C1287      C1292   1.412       .  A
C1287      C1296   1.398       .  A
C1288      F1304   1.382       .  S
C1288      F1305   1.382       .  S
C1288      F1306   1.385       .  S
C1290      F1301   1.385       .  S
C1290      F1302   1.380       .  S
C1290      F1303   1.382       .  S
C1292      C1293   1.408       .  A
C1292      C1297   1.522       .  S
C1293      C1294   1.413       .  A
C1293      H1298   1.082       .  S
C1294      C1295   1.429       .  A
C1295      C1296   1.409       .  A
C1295      C1299   1.519       .  S
C1296      H1300   1.083       .  S
C1297      F1310   1.384       .  S
C1297      F1311   1.382       .  S
C1297      F1312   1.383       .  S
C1299      F1307   1.385       .  S
C1299      F1308   1.378       .  S
C1299      F1309   1.383       .  S
C1313      C1314   1.400       .  A
C1313      C1318   1.398       .  A
C1313      H1323   1.086       .  S
C1314      C1319   1.473       .  S
C1314      C1315   1.412       .  A
C1315      C1316   1.408       .  A
C1315      C1320   1.519       .  S
C1316      C1317   1.407       .  A
C1316      H1321   1.084       .  S
C1317      C1318   1.415       .  A
C1318      C1322   1.515       .  S
C1319      C1324   1.416       .  A
C1319      C1328   1.400       .  A
C1320      F1336   1.382       .  S
C1320      F1337   1.382       .  S
C1320      F1338   1.384       .  S
C1322      F1333   1.383       .  S
C1322      F1334   1.383       .  S
C1322      F1335   1.380       .  S
C1324      C1325   1.403       .  A
C1324      C1329   1.519       .  S
C1325      C1326   1.400       .  A
C1325      H1330   1.082       .  S
C1326      C1327   1.415       .  A
C1327      C1328   1.400       .  A
C1327      C1331   1.520       .  S
C1328      H1332   1.084       .  S
C1329      F1342   1.385       .  S
C1329      F1343   1.382       .  S
C1329      F1344   1.381       .  S
C1331      F1339   1.381       .  S
C1331      F1340   1.381       .  S
C1331      F1341   1.385       .  S
C1345      C1346   1.400       .  A
C1345      C1350   1.397       .  A
C1345      H1355   1.084       .  S
C1346      C1351   1.478       .  S
C1346      C1347   1.416       .  A
C1347      C1348   1.406   1_565  A
C1347      C1352   1.519       .  S
C1348      C1349   1.405       .  A
C1348      H1353   1.081       .  S
C1349      C1350   1.416   1_545  A
C1350      C1354   1.518       .  S
C1351      C1356   1.412       .  A
C1351      C1360   1.401       .  A
C1352      F1368   1.382       .  S
C1352      F1369   1.381       .  S
C1352      F1370   1.385   1_565  S
C1354      F1365   1.383       .  S
C1354      F1366   1.383       .  S
C1354      F1367   1.382   1_565  S
C1356      C1357   1.407       .  A
C1356      C1361   1.520       .  S
C1357      C1358   1.411       .  A
C1357      H1362   1.082       .  S
C1358      C1359   1.422       .  A
C1359      C1360   1.401       .  A
C1359      C1363   1.522       .  S
C1360      H1364   1.084       .  S
C1361      F1374   1.384       .  S
C1361      F1375   1.381       .  S
C1361      F1376   1.382       .  S
C1363      F1371   1.383       .  S
C1363      F1372   1.384       .  S
C1363      F1373   1.385       .  S
C1377      C1378   1.401       .  A
C1377      C1382   1.404       .  A
C1377      H1387   1.084       .  S
C1378      C1383   1.489       .  S
C1378      C1379   1.416       .  A
C1379      C1380   1.410       .  A
C1379      C1384   1.517       .  S
C1380      C1381   1.403       .  A
C1380      H1385   1.074       .  S
C1381      C1382   1.418       .  A
C1382      C1386   1.516       .  S
C1383      C1388   1.414       .  A
C1383      C1392   1.402       .  A
C1384      F1400   1.382       .  S
C1384      F1401   1.383       .  S
C1384      F1402   1.385       .  S
C1386      F1397   1.383       .  S
C1386      F1398   1.384       .  S
C1386      F1399   1.383       .  S
C1388      C1389   1.402       .  A
C1388      C1393   1.525       .  S
C1389      C1390   1.413       .  A
C1389      H1394   1.083       .  S
C1390      C1391   1.428       .  A
C1391      C1392   1.416       .  A
C1391      C1395   1.518       .  S
C1392      H1396   1.084       .  S
C1393      F1406   1.385       .  S
C1393      F1407   1.382       .  S
C1393      F1408   1.383       .  S
C1395      F1403   1.385       .  S
C1395      F1404   1.383       .  S
C1395      F1405   1.384       .  S
C1409      C1414   1.405       .  A
C1409      H1419   1.086   1_554  S
C1410      C1411   1.412       .  A
C1411      C1412   1.405       .  A
C1411      C1416   1.515       .  S
C1412      C1413   1.410       .  A
C1412      H1417   1.087       .  S
C1414      C1418   1.517   1_554  S
C1415      C1420   1.416       .  A
C1415      C1424   1.400       .  A
C1416      F1432   1.382       .  S
C1416      F1433   1.384       .  S
C1416      F1434   1.384       .  S
C1418      F1429   1.382   1_556  S
C1418      F1430   1.385       .  S
C1418      F1431   1.383       .  S
C1420      C1421   1.410       .  A
C1420      C1425   1.517       .  S
C1421      C1422   1.406       .  A
C1421      H1426   1.083       .  S
C1422      C1423   1.419       .  A
C1423      C1424   1.397       .  A
C1423      C1427   1.520       .  S
C1425      F1438   1.385       .  S
C1425      F1439   1.382       .  S
C1427      F1435   1.383   1_554  S
C1427      F1436   1.380   1_554  S
C1441      C1442   1.402       .  A
C1441      C1446   1.406       .  A
C1441      H1451   1.086       .  S
C1442      C1447   1.492       .  S
C1442      C1443   1.417       .  A
C1443      C1444   1.410       .  A
C1443      C1448   1.518       .  S
C1444      C1445   1.403       .  A
C1444      H1449   1.084       .  S
C1445      C1446   1.419       .  A
C1446      C1450   1.514   1_655  S
C1447      C1452   1.417       .  A
C1447      C1456   1.404       .  A
C1448      F1464   1.382       .  S
C1448      F1465   1.382       .  S
C1448      F1466   1.385       .  S
C1450      F1461   1.377       .  S
C1450      F1462   1.383   1_455  S
C1450      F1463   1.383       .  S
C1452      C1453   1.408       .  A
C1452      C1457   1.521       .  S
C1453      C1454   1.406       .  A
C1453      H1458   1.083       .  S
C1454      C1455   1.420       .  A
C1455      C1456   1.412       .  A
C1455      C1459   1.518       .  S
C1456      H1460   1.083       .  S
C1457      F1470   1.384       .  S
C1457      F1471   1.382       .  S
C1457      F1472   1.382       .  S
C1459      F1467   1.382       .  S
C1459      F1468   1.384       .  S
C1459      F1469   1.385       .  S
C1473      C1474   1.400       .  A
C1473      C1478   1.403       .  A
C1473      H1483   1.085       .  S
C1474      C1479   1.491       .  S
C1474      C1475   1.418       .  A
C1475      C1476   1.411       .  A
C1475      C1480   1.518       .  S
C1476      C1477   1.404       .  A
C1476      H1481   1.084       .  S
C1477      C1478   1.421       .  A
C1478      C1482   1.521   1_655  S
C1479      C1484   1.417       .  A
C1479      C1488   1.399       .  A
C1480      F1496   1.381       .  S
C1480      F1497   1.383       .  S
C1480      F1498   1.385       .  S
C1482      F1493   1.384       .  S
C1482      F1494   1.383   1_455  S
C1482      F1495   1.378       .  S
C1484      C1485   1.408       .  A
C1484      C1489   1.520       .  S
C1485      C1486   1.407       .  A
C1485      H1490   1.084       .  S
C1486      C1487   1.431       .  A
C1487      C1488   1.411       .  A
C1487      C1491   1.522       .  S
C1488      H1492   1.083       .  S
C1489      F1502   1.385       .  S
C1489      F1503   1.381       .  S
C1489      F1504   1.383       .  S
C1491      F1499   1.385       .  S
C1491      F1500   1.380       .  S
C1491      F1501   1.383       .  S
C1505      C1506   1.400   1_545  A
C1505      C1510   1.406       .  A
C1505      H1515   1.084       .  S
C1506      C1511   1.484       .  S
C1506      C1507   1.414   1_565  A
C1507      C1508   1.407       .  A
C1507      C1512   1.519   1_545  S
C1508      C1509   1.403       .  A
C1508      H1513   1.076       .  S
C1509      C1510   1.421       .  A
C1510      C1514   1.517       .  S
C1511      C1516   1.413       .  A
C1511      C1520   1.400       .  A
C1512      F1528   1.382       .  S
C1512      F1529   1.382       .  S
C1512      F1530   1.384       .  S
C1514      F1525   1.384       .  S
C1514      F1526   1.383       .  S
C1514      F1527   1.379       .  S
C1516      C1517   1.405       .  A
C1516      C1521   1.521       .  S
C1517      C1518   1.410       .  A
C1517      H1522   1.082       .  S
C1518      C1519   1.426       .  A
C1519      C1520   1.410       .  A
C1519      C1523   1.520       .  S
C1520      H1524   1.083       .  S
C1521      F1534   1.385       .  S
C1521      F1535   1.382       .  S
C1521      F1536   1.382       .  S
C1523      F1531   1.382       .  S
C1523      F1532   1.382       .  S
C1523      F1533   1.385       .  S
C1537      C1538   1.395       .  A
C1537      C1542   1.392   1_565  A
C1537      H1547   1.083       .  S
C1538      C1543   1.475       .  S
C1538      C1539   1.418       .  A
C1539      C1540   1.410   1_565  A
C1539      C1544   1.517       .  S
C1540      C1541   1.403       .  A
C1540      H1545   1.080       .  S
C1541      C1542   1.415       .  A
C1542      C1546   1.513       .  S
C1543      C1548   1.415       .  A
C1543      C1552   1.404       .  A
C1544      F1560   1.382       .  S
C1544      F1561   1.383       .  S
C1544      F1562   1.385       .  S
C1546      F1557   1.385       .  S
C1546      F1558   1.382       .  S
C1546      F1559   1.378       .  S
C1548      C1549   1.399       .  A
C1548      C1553   1.522       .  S
C1549      C1550   1.402       .  A
C1549      H1554   1.083       .  S
C1550      C1551   1.414       .  A
C1551      C1552   1.403       .  A
C1551      C1555   1.518       .  S
C1552      H1556   1.084       .  S
C1553      F1566   1.385       .  S
C1553      F1567   1.381       .  S
C1553      F1568   1.382       .  S
C1555      F1563   1.384       .  S
C1555      F1564   1.381   1_556  S
C1555      F1565   1.383       .  S
C1569      C1570   1.402       .  A
C1569      C1574   1.405       .  A
C1569      H1579   1.084       .  S
C1570      C1575   1.478       .  S
C1571      C1572   1.404       .  A
C1571      C1576   1.519       .  S
C1572      H1577   1.084       .  S
C1573      C1574   1.418       .  A
C1574      C1578   1.521       .  S
C1575      C1584   1.405       .  A
C1576      F1592   1.383       .  S
C1576      F1593   1.381       .  S
C1576      F1594   1.384       .  S
C1578      F1589   1.385       .  S
C1578      F1590   1.384       .  S
C1578      F1591   1.382       .  S
C1580      C1581   1.400       .  A
C1580      C1585   1.521       .  S
C1581      H1586   1.082       .  S
C1582      C1583   1.409       .  A
C1583      C1584   1.407       .  A
C1583      C1587   1.516       .  S
C1584      H1588   1.082       .  S
C1585      F1598   1.385       .  S
C1585      F1599   1.382       .  S
C1585      F1600   1.381       .  S
C1587      F1595   1.383       .  S
C1587      F1596   1.383       .  S
C1587      F1597   1.384       .  S
C1601      C1602   1.400       .  A
C1601      C1606   1.408   1_655  A
C1601      H1611   1.083       .  S
C1602      C1607   1.483       .  S
C1602      C1603   1.413       .  A
C1603      C1604   1.404   1_655  A
C1603      C1608   1.520       .  S
C1604      C1605   1.408       .  A
C1604      H1609   1.083       .  S
C1605      C1606   1.421       .  A
C1606      C1610   1.514       .  S
C1607      C1612   1.416       .  A
C1607      C1616   1.395       .  A
C1608      F1624   1.381       .  S
C1608      F1625   1.383       .  S
C1608      F1626   1.384       .  S
C1610      F1621   1.378       .  S
C1610      F1622   1.384       .  S
C1610      F1623   1.381       .  S
C1612      C1613   1.405       .  A
C1612      C1617   1.521       .  S
C1613      C1614   1.407       .  A
C1613      H1618   1.084       .  S
C1614      C1615   1.433       .  A
C1615      C1616   1.406       .  A
C1615      C1619   1.524       .  S
C1616      H1620   1.085       .  S
C1617      F1630   1.385       .  S
C1617      F1631   1.382       .  S
C1617      F1632   1.383       .  S
C1619      F1627   1.383       .  S
C1619      F1628   1.384       .  S
C1619      F1629   1.385       .  S
C1633      C1634   1.396       .  A
C1633      C1638   1.402       .  A
C1633      H1643   1.084       .  S
C1634      C1639   1.479       .  S
C1634      C1635   1.412       .  A
C1635      C1636   1.409       .  A
C1635      C1640   1.516       .  S
C1636      C1637   1.405       .  A
C1636      H1641   1.081       .  S
C1637      C1638   1.418       .  A
C1638      C1642   1.512       .  S
C1639      C1644   1.417       .  A
C1639      C1648   1.396       .  A
C1640      F1656   1.384       .  S
C1640      F1657   1.382       .  S
C1640      F1658   1.384       .  S
C1642      F1653   1.380       .  S
C1642      F1654   1.384       .  S
C1642      F1655   1.380       .  S
C1644      C1645   1.403       .  A
C1644      C1649   1.522       .  S
C1645      C1646   1.403       .  A
C1645      H1650   1.085       .  S
C1646      C1647   1.427       .  A
C1647      C1648   1.407       .  A
C1647      C1651   1.521       .  S
C1648      H1652   1.085       .  S
C1649      F1662   1.385       .  S
C1649      F1663   1.382       .  S
C1649      F1664   1.382       .  S
C1651      F1659   1.384       .  S
C1651      F1660   1.383       .  S
C1651      F1661   1.385       .  S
C1665      C1666   1.397       .  A
C1665      C1670   1.404       .  A
C1665      H1675   1.087       .  S
C1666      C1671   1.474       .  S
C1666      C1667   1.414       .  A
C1667      C1668   1.402       .  A
C1667      C1672   1.519       .  S
C1668      C1669   1.403       .  A
C1668      H1673   1.087       .  S
C1669      C1670   1.425       .  A
C1670      C1674   1.521       .  S
C1671      C1676   1.411       .  A
C1671      C1680   1.401       .  A
C1672      F1688   1.382       .  S
C1672      F1689   1.382       .  S
C1672      F1690   1.385       .  S
C1674      F1685   1.383       .  S
C1674      F1686   1.385       .  S
C1674      F1687   1.383       .  S
C1676      C1677   1.402       .  A
C1676      C1681   1.519       .  S
C1677      C1678   1.407       .  A
C1677      H1682   1.081       .  S
C1678      C1679   1.415       .  A
C1679      C1680   1.400       .  A
C1679      C1683   1.516       .  S
C1680      H1684   1.085       .  S
C1681      F1694   1.385       .  S
C1681      F1695   1.382       .  S
C1681      F1696   1.382       .  S
C1683      F1691   1.384       .  S
C1683      F1692   1.380       .  S
C1683      F1693   1.383       .  S
C1697      C1698   1.400       .  A
C1697      C1702   1.409       .  A
C1697      H1707   1.083       .  S
C1698      C1703   1.487       .  S
C1698      C1699   1.417       .  A
C1699      C1700   1.410       .  A
C1699      C1704   1.520       .  S
C1700      C1701   1.407       .  A
C1700      H1705   1.083       .  S
C1701      C1702   1.424       .  A
C1702      C1706   1.519       .  S
C1703      C1708   1.417       .  A
C1703      C1712   1.399       .  A
C1704      F1720   1.382       .  S
C1704      F1721   1.382       .  S
C1704      F1722   1.384       .  S
C1706      F1717   1.385       .  S
C1706      F1718   1.382       .  S
C1706      F1719   1.383       .  S
C1708      C1709   1.411       .  A
C1708      C1713   1.516       .  S
C1709      C1710   1.403       .  A
C1709      H1714   1.081       .  S
C1710      C1711   1.418       .  A
C1711      C1712   1.400       .  A
C1712      H1716   1.085       .  S
C1713      F1726   1.385       .  S
C1713      F1727   1.382       .  S
C1713      F1728   1.381       .  S
C1715      F1724   1.379       .  S
C1715      F1725   1.383       .  S
C1729      C1730   1.398       .  A
C1729      C1734   1.410       .  A
C1729      H1739   1.083       .  S
C1730      C1735   1.495       .  S
C1730      C1731   1.416       .  A
C1731      C1732   1.413       .  A
C1731      C1736   1.519       .  S
C1732      C1733   1.411       .  A
C1732      H1737   1.082       .  S
C1733      C1734   1.433       .  A
C1734      C1738   1.524       .  S
C1735      C1740   1.417       .  A
C1735      C1744   1.398       .  A
C1736      F1752   1.382       .  S
C1736      F1753   1.382       .  S
C1736      F1754   1.384       .  S
C1738      F1749   1.385       .  S
C1738      F1750   1.384       .  S
C1738      F1751   1.383       .  S
C1740      C1741   1.413       .  A
C1740      C1745   1.518       .  S
C1741      C1742   1.410       .  A
C1741      H1746   1.082       .  S
C1742      C1743   1.424       .  A
C1743      C1744   1.406       .  A
C1743      C1747   1.510       .  S
C1744      H1748   1.085       .  S
C1745      F1758   1.385       .  S
C1745      F1759   1.382       .  S
C1745      F1760   1.382       .  S
C1747      F1755   1.384       .  S
C1747      F1756   1.372       .  S
C1747      F1757   1.379       .  S
C1761      C1762   1.402       .  A
C1761      C1766   1.406       .  A
C1761      H1771   1.083       .  S
C1762      C1767   1.482       .  S
C1762      C1763   1.417       .  A
C1763      C1764   1.402       .  A
C1763      C1768   1.515       .  S
C1764      C1765   1.397       .  A
C1764      H1769   1.084       .  S
C1765      C1766   1.415       .  A
C1766      C1770   1.518       .  S
C1767      C1772   1.414       .  A
C1767      C1776   1.406       .  A
C1768      F1784   1.382       .  S
C1768      F1785   1.381       .  S
C1768      F1786   1.385       .  S
C1770      F1781   1.385       .  S
C1770      F1782   1.382       .  S
C1770      F1783   1.383       .  S
C1772      C1773   1.400       .  A
C1772      C1777   1.520       .  S
C1773      C1774   1.403       .  A
C1773      H1778   1.083       .  S
C1774      C1775   1.413       .  A
C1775      C1776   1.411       .  A
C1775      C1779   1.515       .  S
C1776      H1780   1.083       .  S
C1777      F1790   1.385       .  S
C1777      F1791   1.382       .  S
C1777      F1792   1.382       .  S
C1779      F1787   1.385       .  S
C1793      C1794   1.397       .  A
C1793      C1798   1.406       .  A
C1793      H1803   1.083       .  S
C1794      C1799   1.483       .  S
C1795      C1796   1.408       .  A
C1795      C1800   1.518       .  S
C1796      H1801   1.085       .  S
C1797      C1798   1.422       .  A
C1798      C1802   1.509       .  S
C1799      C1804   1.411       .  A
C1800      F1816   1.383       .  S
C1800      F1818   1.383       .  S
C1802      F1813   1.385       .  S
C1802      F1814   1.382       .  S
C1802      F1815   1.378       .  S
C1804      C1805   1.407       .  A
C1804      C1809   1.517       .  S
C1805      C1806   1.409       .  A
C1805      H1810   1.083       .  S
C1807      C1808   1.406       .  A
C1807      C1811   1.515       .  S
C1808      H1812   1.083       .  S
C1809      F1822   1.385       .  S
C1809      F1823   1.383       .  S
C1809      F1824   1.383       .  S
C1811      F1819   1.385       .  S
C1811      F1820   1.382       .  S
C1811      F1821   1.378       .  S
