geometry optimzed in LAMMPS
_audit_creation_date              2020-11-30 
_audit_creation_method            'lammps2cif' 
_symmetry_space_group_name_H-M    'P1' 
_symmetry_Int_Tables_number       1 
_symmetry_cell_setting            triclinic 
loop_ 
_symmetry_equiv_pos_as_xyz 
  x,y,z 
_cell_length_a                    51.22463265 
_cell_length_b                    51.209918262996744 
_cell_length_c                    27.09368404701466 
_cell_angle_alpha                 90.0137493561168 
_cell_angle_beta                  89.95993399548307 
_cell_angle_gamma                 120.11578724167084 
loop_ 
_atom_site_label 
_atom_site_type_symbol 
_atom_site_fract_x 
_atom_site_fract_y 
_atom_site_fract_z 
_atom_site_charge 
O1          O  0.47420697  0.05722767  0.58333606    -0.74900
O2          O  0.48573865  0.03180444  0.64039571    -0.53800
C3          C  0.47632543  0.04989867  0.62793659     0.78900
O4          O  0.42154414  0.94301934  0.41243687    -0.59500
O5          O  0.45830910  0.97070666  0.35610809    -0.52500
C6          C  0.43115713  0.95096153  0.36794246     0.70900
O7          O  0.41894110  0.94438135  0.57856051    -0.74000
O8          O  0.45517890  0.96882983  0.63724283    -0.54600
C9          C  0.42789885  0.95081472  0.62355398     0.76900
O10         O  0.47566019  0.05952130  0.41715178    -0.59200
O11         O  0.48581404  0.03339199  0.35936269    -0.52300
C12         C  0.47709760  0.05190609  0.37242634     0.73500
Zr13       Zr  0.48388040  0.04646243  0.49990620     2.54700
O14         O  0.43678701  0.04732558  0.50152140    -0.79700
O15         O  0.51185533  0.10145585  0.49975084    -0.93200
Zr16       Zr  0.44117780  0.95645095  0.49655338     2.64700
O17         O  0.39200061  0.95306321  0.49391697    -0.98100
O18         O  0.41910991  0.90190697  0.50005443    -0.80200
O19         O  0.46172804  0.00081318  0.54543849    -0.83500
O20         O  0.46211162  0.00195778  0.45124280    -2.18200
O21         O  0.58247539  0.06489393  0.41666959    -0.66900
O22         O  0.54633287  0.03905348  0.35850316    -0.51500
C23         C  0.57327555  0.05854451  0.37167113     0.71800
O24         O  0.52897091  0.94691115  0.58146318    -0.59800
O25         O  0.51370341  0.96884242  0.63929384    -0.51800
C26         C  0.52459280  0.95202637  0.62648778     0.73700
O27         O  0.52703165  0.94668428  0.41319467    -0.71200
O28         O  0.51796225  0.97395179  0.35610137    -0.49900
C29         C  0.52568863  0.95452090  0.36839922     0.75000
O30         O  0.58282398  0.05952890  0.58389226    -0.66600
O31         O  0.54615226  0.03270309  0.64089748    -0.53800
C32         C  0.57353218  0.05153594  0.62851363     0.73400
Zr33       Zr  0.56231433  0.04924607  0.50007709     2.77500
O34         O  0.61151455  0.05308889  0.49283839    -0.97300
O35         O  0.58520882  0.10387699  0.50506334    -0.78100
Zr36       Zr  0.51981752  0.95910362  0.49780799     2.70100
O37         O  0.56734504  0.95917026  0.49572148    -0.79400
O38         O  0.49076253  0.90415673  0.50060542    -0.98500
Zr39       Zr  0.50110468  0.00161795  0.59306862     2.21500
Zr40       Zr  0.50232198  0.00366344  0.40440198     2.11100
O41         O  0.54195427  0.00468498  0.45184985    -2.47100
O42         O  0.54139572  0.00372447  0.54618342    -0.79200
O43         O  0.52376335  0.04913402  0.45151681    -0.71400
O44         O  0.47964061  0.95643388  0.54532161    -2.32300
O45         O  0.52323454  0.04820808  0.54861358    -2.28500
O46         O  0.48044212  0.95729781  0.44883797    -0.73100
H47         H  0.44662513  0.00145349  0.43030262     0.78900
H48         H  0.47110438  0.93880756  0.56629648     0.80000
H49         H  0.55759452  0.00559562  0.43075100     0.82200
H50         H  0.53137892  0.06525927  0.57081089     0.79800
H51         H  0.43196832  0.89768734  0.47799028     0.42800
H52         H  0.49069630  0.89756129  0.46623865     0.41800
H53         H  0.58125230  0.97679461  0.51603096     0.41500
H54         H  0.62359920  0.06591304  0.52076776     0.39400
H55         H  0.58028355  0.10977876  0.47313064     0.42500
H56         H  0.52819075  0.10699091  0.47532373     0.37300
H57         H  0.44228395  0.06772172  0.48951668     0.43400
H58         H  0.39237518  0.96430433  0.46393803     0.39900
H59         H  0.60773515  0.03265446  0.50109584     0.44800
H60         H  0.52227512  0.10719755  0.53204379     0.43500
H61         H  0.37757750  0.93164806  0.48610303     0.43600
H62         H  0.50377746  0.89823813  0.51871715     0.44000
O63         O  0.05942693  0.58347856  0.58162945    -0.74900
O64         O  0.03516759  0.54725630  0.64037509    -0.53800
C65         C  0.05306293  0.57460394  0.62669085     0.78900
O66         O  0.94447054  0.52755720  0.41942024    -0.59500
O67         O  0.96863574  0.51546263  0.36073134    -0.52500
C68         C  0.95081713  0.52492897  0.37428181     0.70900
O69         O  0.94799509  0.52846076  0.58683613    -0.74000
O70         O  0.97331713  0.51682638  0.64384855    -0.54600
C71         C  0.95542764  0.52645571  0.63147092     0.76900
O72         O  0.05932850  0.58291842  0.41500540    -0.59200
O73         O  0.03191182  0.54641030  0.35816214    -0.52300
C74         C  0.05127135  0.57367012  0.37037943     0.73500
Zr75       Zr  0.04727167  0.56226804  0.49874763     2.54700
O76         O  0.05027932  0.61123285  0.49934970    -0.79700
O77         O  0.10207076  0.58635914  0.49792323    -0.93200
Zr78       Zr  0.95718909  0.51847202  0.50242606     2.64700
O79         O  0.95288081  0.56362485  0.50905141    -0.98100
O80         O  0.90245121  0.48669389  0.50307953    -0.80200
O81         O  0.00293986  0.54084553  0.54762109    -0.83500
O82         O  0.00160365  0.54112871  0.45365189    -2.18200
O83         O  0.05656834  0.47583407  0.41329788    -0.66900
O84         O  0.03066697  0.48730072  0.35708028    -0.51500
C85         C  0.04909843  0.47823910  0.36883185     0.71800
O86         O  0.94474612  0.42024024  0.58467770    -0.59800
O87         O  0.97046737  0.45699269  0.64210941    -0.51800
C88         C  0.95186964  0.42965257  0.62945175     0.73700
O89         O  0.93965772  0.41988997  0.41736631    -0.71200
O90         O  0.96598222  0.45657398  0.36008660    -0.49900
C91         C  0.94640898  0.42944984  0.37251785     0.75000
O92         O  0.05940474  0.47602344  0.58055512    -0.66600
O93         O  0.03451158  0.48700392  0.63945311    -0.53800
C94         C  0.05296094  0.47828382  0.62577940     0.73400
Zr95       Zr  0.04556495  0.48417367  0.49788565     2.77500
O96         O  0.04748156  0.43762276  0.50024190    -0.97300
O97         O  0.10042657  0.51369950  0.49457741    -0.78100
Zr98       Zr  0.95535855  0.44054750  0.50086614     2.70100
O99         O  0.95134895  0.39115231  0.49825152    -0.79400
O100        O  0.90075875  0.41823275  0.50531121    -0.98500
Zr101      Zr  0.00287740  0.50163024  0.59467150     2.21500
Zr102      Zr  0.00022080  0.50136771  0.40589230     2.11100
O103        O  0.99983772  0.46158211  0.45227950    -2.47100
O104        O  0.00106343  0.46183913  0.54658928    -0.79200
O105        O  0.04678444  0.52359085  0.44987312    -0.71400
O106        O  0.95631755  0.47930175  0.55032501    -2.32300
O107        O  0.04812071  0.52388545  0.54677096    -2.28500
O108        O  0.95488237  0.47911089  0.45317015    -0.73100
H109        H  0.00172501  0.55658138  0.43308736     0.78900
H110        H  0.93936331  0.47105271  0.57275479     0.80000
H111        H  0.99903503  0.44608967  0.43093766     0.82200
H112        H  0.06577732  0.53244005  0.56768244     0.79800
H113        H  0.89722677  0.48043533  0.53794014     0.42800
H114        H  0.89686284  0.42422909  0.53800967     0.41800
H115        H  0.97252884  0.39561532  0.49809447     0.41500
H116        H  0.03703112  0.42656166  0.46988531     0.39400
H117        H  0.10534739  0.53479538  0.49999745     0.42500
H118        H  0.10796938  0.58851932  0.53312995     0.37300
H119        H  0.03282348  0.60808853  0.51958105     0.43400
H120        H  0.95952948  0.57391335  0.47674235     0.39900
H121        H  0.06899221  0.44412179  0.49451521     0.44800
H122        H  0.10905024  0.60724596  0.48671116     0.43500
H123        H  0.93088693  0.55597938  0.51011605     0.43600
H124        H  0.89611650  0.42994151  0.48137658     0.44000
O125        O  0.41932518  0.47745578  0.58612282    -0.74900
O126        O  0.45603457  0.49004514  0.64404696    -0.53800
C127        C  0.42852829  0.48027741  0.63111993     0.78900
O128        O  0.47698396  0.41954707  0.41993240    -0.59500
O129        O  0.48854397  0.45611146  0.36194552    -0.52500
C130        C  0.48015499  0.42890073  0.37496119     0.70900
O131        O  0.47323315  0.41964573  0.58693855    -0.74000
O132        O  0.48524073  0.45666731  0.64418386    -0.54600
C133        C  0.47550878  0.42907992  0.63165692     0.76900
O134        O  0.42050891  0.48152042  0.42010863    -0.59200
O135        O  0.45618555  0.48966598  0.36213132    -0.52300
C136        C  0.42942750  0.48295567  0.37532095     0.73500
Zr137      Zr  0.44082114  0.48746672  0.50287960     2.54700
O138        O  0.39055707  0.44323934  0.49846731    -0.79700
O139        O  0.41992455  0.52088178  0.50654005    -0.93200
Zr140      Zr  0.48370748  0.44037701  0.50336873     2.64700
O141        O  0.43827455  0.39085188  0.50670649    -0.98100
O142        O  0.51546530  0.41752357  0.50445831    -0.80200
O143        O  0.46144851  0.46335499  0.55011097    -0.83500
O144        O  0.46142106  0.46292761  0.45571520    -2.18200
O145        O  0.52316259  0.58275361  0.41740724    -0.66900
O146        O  0.51488666  0.54670809  0.36021815    -0.51500
C147        C  0.52171575  0.57363100  0.37272866     0.71800
O148        O  0.58252751  0.52652482  0.58663850    -0.59800
O149        O  0.54547379  0.51401459  0.64410259    -0.51800
C150        C  0.57293035  0.52335989  0.63146258     0.73700
O151        O  0.58279228  0.52373180  0.41942013    -0.71200
O152        O  0.54643413  0.51313512  0.36151531    -0.49900
C153        C  0.57360444  0.52124376  0.37445672     0.75000
O154        O  0.52960580  0.58540112  0.58277708    -0.66600
O155        O  0.51597161  0.54872526  0.64130654    -0.53800
C156        C  0.52639842  0.57623634  0.62769476     0.73400
Zr157      Zr  0.51929188  0.56345817  0.50084668     2.77500
O158        O  0.56815655  0.60975088  0.49545005    -0.97300
O159        O  0.49227321  0.59124250  0.50434243    -0.78100
Zr160      Zr  0.56190804  0.51646792  0.50286586     2.70100
O161        O  0.61293417  0.55959360  0.49932550    -0.79400
O162        O  0.58159102  0.48205482  0.50697287    -0.98500
Zr163      Zr  0.50099190  0.50234674  0.59695387     2.21500
Zr164      Zr  0.50135954  0.50147898  0.40779514     2.11100
O165        O  0.54132752  0.54039713  0.45443996    -2.47100
O166        O  0.54101933  0.54076427  0.54944538    -0.79200
O167        O  0.47951790  0.52544363  0.45351754    -0.71400
O168        O  0.52305634  0.47826315  0.55169402    -2.32300
O169        O  0.47960899  0.52639814  0.55016603    -2.28500
O170        O  0.52319125  0.47787791  0.45460508    -0.73100
H171        H  0.44593886  0.44780139  0.43483036     0.78900
H172        H  0.53127903  0.46931948  0.57360217     0.80000
H173        H  0.55663623  0.55528357  0.43303661     0.82200
H174        H  0.47136643  0.53564469  0.57138856     0.79800
H175        H  0.50538951  0.40046393  0.52789440     0.42800
H176        H  0.57658504  0.47180614  0.47450110     0.41800
H177        H  0.61049232  0.57723113  0.50625888     0.41500
H178        H  0.58075036  0.60452822  0.47458444     0.39400
H179        H  0.50802266  0.61224906  0.51202386     0.42500
H180        H  0.39789959  0.50727463  0.50271314     0.37300
H181        H  0.39246753  0.42718755  0.51554330     0.43400
H182        H  0.42365349  0.39256629  0.48503810     0.39900
H183        H  0.56464717  0.62367749  0.47488393     0.44800
H184        H  0.42637703  0.53241053  0.47525115     0.43500
H185        H  0.44351690  0.37724880  0.48878824     0.43600
H186        H  0.60378589  0.49539920  0.50625521     0.44000
O187        O  0.79106347  0.49076168  0.01090949    -0.74900
O188        O  0.84051394  0.52730225  0.00291134    -0.53800
C189        C  0.81946597  0.49975627  0.00991902     0.78900
O190        O  0.74472035  0.57288155  0.86224762    -0.59500
O191        O  0.71269421  0.57104617  0.92255142    -0.52500
C192        C  0.71999598  0.57106670  0.87716832     0.70900
O193        O  0.83238051  0.57218143  0.86353270    -0.74000
O194        O  0.86259377  0.57216971  0.92532468    -0.54600
C195        C  0.85558715  0.57135716  0.87961290     0.76900
O196        O  0.70292112  0.48903869  0.99000670    -0.59200
O197        O  0.68955593  0.52527111  0.99630769    -0.52300
C198        C  0.68332229  0.49776239  0.99077888     0.73500
Zr199      Zr  0.75721505  0.51078309  0.99993750     2.54700
O200        O  0.74413616  0.47199806  0.93745170    -0.79700
O201        O  0.73490702  0.47486545  0.06753138    -0.93200
Zr202      Zr  0.78976637  0.57519353  0.89694017     2.64700
O203        O  0.77391963  0.54036271  0.82734774    -0.98100
O204        O  0.81283154  0.61835063  0.84136795    -0.80200
O205        O  0.79817022  0.54217556  0.94735884    -0.83500
O206        O  0.74808154  0.54188126  0.94656645    -2.18200
O207        O  0.74168164  0.56981833  0.13725745    -0.66900
O208        O  0.71077177  0.56874112  0.07574222    -0.51500
C209        C  0.71714120  0.56793737  0.12146961     0.71800
O210        O  0.87572057  0.66091369  0.00128704    -0.59800
O211        O  0.88518954  0.62178660  0.00226944    -0.51800
C212        C  0.89383389  0.65011631  0.00198190     0.73700
O213        O  0.78493429  0.65895013  0.00168942    -0.71200
O214        O  0.73651978  0.61927683  0.99906133    -0.49900
C215        C  0.75593911  0.64766888  0.00032067     0.75000
O216        O  0.82982173  0.57124779  0.13808449    -0.66600
O217        O  0.86061512  0.57076914  0.07750682    -0.53800
C218        C  0.85277444  0.56964047  0.12285434     0.73400
Zr219      Zr  0.78779277  0.57457361  0.10325399     2.77500
O220        O  0.80827652  0.61771799  0.15887747    -0.97300
O221        O  0.76968197  0.53890466  0.17163245    -0.78100
Zr222      Zr  0.81981843  0.63834554  0.00080043     2.70100
O223        O  0.83840553  0.67551738  0.06693876    -0.79400
O224        O  0.83586134  0.67473689  0.93363173    -0.98500
Zr225      Zr  0.83840175  0.57406650  0.00085056     2.21500
Zr226      Zr  0.73753380  0.57269625  0.99936922     2.11100
O227        O  0.77803818  0.60605119  0.05203584    -2.47100
O228        O  0.82963140  0.60665371  0.05283137    -0.79200
O229        O  0.74662878  0.54130559  0.05247662    -0.71400
O230        O  0.83047787  0.60715755  0.94891685    -2.32300
O231        O  0.79716250  0.54240903  0.05301197    -2.28500
O232        O  0.77892322  0.60616981  0.94809625    -0.73100
H233        H  0.73119450  0.52941666  0.92536045     0.78900
H234        H  0.84808864  0.61947067  0.92894203     0.80000
H235        H  0.77225027  0.61784484  0.07229357     0.82200
H236        H  0.80171264  0.53001523  0.07406074     0.79800
H237        H  0.80094338  0.61104114  0.81054390     0.42800
H238        H  0.84974995  0.67083247  0.91369924     0.41800
H239        H  0.84423156  0.69488563  0.05024726     0.41500
H240        H  0.79167129  0.62207158  0.16370296     0.39400
H241        H  0.76648702  0.51978070  0.15707285     0.42500
H242        H  0.72131135  0.45533095  0.05130898     0.37300
H243        H  0.73456780  0.47744869  0.91072758     0.43400
H244        H  0.75542685  0.52212400  0.83892968     0.39900
H245        H  0.81002089  0.60952904  0.19102223     0.44800
H246        H  0.72118966  0.48045572  0.08418969     0.43500
H247        H  0.76681862  0.54921557  0.80186988     0.43600
H248        H  0.81768042  0.66751615  0.91269582     0.44000
O249        O  0.70422408  0.21128886  0.00552330    -0.74900
O250        O  0.68963175  0.16147202  0.99955327    -0.53800
C251        C  0.68402215  0.18321891  0.00440016     0.78900
O252        O  0.83268979  0.26075990  0.86339881    -0.59500
O253        O  0.86290060  0.29129283  0.92507567    -0.52500
C254        C  0.85574880  0.28504617  0.87944671     0.70900
O255        O  0.74429394  0.17238182  0.86070535    -0.74000
O256        O  0.71339222  0.14049649  0.92062473    -0.54600
C257        C  0.72023872  0.14854263  0.87532180     0.76900
O258        O  0.79157685  0.29855779  0.01707372    -0.59200
O259        O  0.84070063  0.31217832  0.00350274    -0.52300
C260        C  0.81975512  0.31828059  0.01330090     0.73500
Zr261      Zr  0.75820530  0.24512886  0.00126183     2.54700
O262        O  0.74419898  0.26499469  0.93075869    -0.79700
O263        O  0.73551294  0.26582026  0.05643734    -0.93200
Zr264      Zr  0.78940867  0.21493171  0.89543264     2.64700
O265        O  0.77044084  0.23333035  0.82960982    -0.98100
O266        O  0.81071554  0.19579191  0.83468217    -0.80200
O267        O  0.74772658  0.20503068  0.94657905    -0.83500
O268        O  0.79859241  0.25590390  0.94759137    -2.18200
O269        O  0.82862645  0.25909657  0.13511254    -0.66900
O270        O  0.86161721  0.28997008  0.07652147    -0.51500
C271        C  0.85203627  0.28374962  0.12122727     0.71800
O272        O  0.78733891  0.12584333  0.99615844    -0.59800
O273        O  0.73876464  0.11653979  0.99755274    -0.51800
C274        C  0.75838973  0.10790705  0.99720076     0.73700
O275        O  0.87722980  0.21588387  0.99178154    -0.71200
O276        O  0.88634050  0.26437414  0.99442849    -0.49900
C277        C  0.89508912  0.24489281  0.99168185     0.75000
O278        O  0.74374839  0.17013243  0.13543904    -0.66600
O279        O  0.71259635  0.13972398  0.07457294    -0.53800
C280        C  0.71910861  0.14728560  0.12018385     0.73400
Zr281      Zr  0.79028516  0.21096813  0.10118615     2.77500
O282        O  0.81397017  0.18787099  0.14799220    -0.97300
O283        O  0.77630835  0.22200938  0.18113945    -0.78100
Zr284      Zr  0.82154523  0.18142039  0.99472899     2.70100
O285        O  0.84211561  0.16220732  0.05653412    -0.79400
O286        O  0.83760923  0.16259463  0.92525366    -0.98500
Zr287      Zr  0.73845852  0.16342817  0.99775191     2.21500
Zr288      Zr  0.83925606  0.26389759  0.99980798     2.11100
O289        O  0.83191312  0.22205276  0.04958023    -2.47100
O290        O  0.77996614  0.17038828  0.04775061    -0.79200
O291        O  0.79849562  0.25324500  0.05359211    -0.71400
O292        O  0.77966604  0.17266837  0.94453250    -2.32300
O293        O  0.74870357  0.20389390  0.05252885    -2.28500
O294        O  0.83097559  0.22375298  0.94533158    -0.73100
H295        H  0.80344657  0.27372871  0.92857676     0.78900
H296        H  0.77416006  0.15544409  0.92348200     0.80000
H297        H  0.84954915  0.22734481  0.06941649     0.82200
H298        H  0.73165589  0.19931351  0.07343850     0.79800
H299        H  0.79735639  0.17359520  0.83539145     0.42800
H300        H  0.81878049  0.14566264  0.91158294     0.41800
H301        H  0.85520184  0.17987711  0.07742561     0.41500
H302        H  0.81350168  0.19384915  0.18259527     0.39400
H303        H  0.77219262  0.23863069  0.17461670     0.42500
H304        H  0.72262544  0.24918349  0.07929875     0.37300
H305        H  0.76097957  0.28603605  0.92705597     0.43400
H306        H  0.77869969  0.25502248  0.83689650     0.39900
H307        H  0.79908775  0.16598174  0.14711649     0.44800
H308        H  0.72118960  0.26852826  0.03554431     0.43500
H309        H  0.78144757  0.23305545  0.79972974     0.43600
H310        H  0.84435753  0.17865499  0.89996527     0.44000
O311        O  0.30074991  0.79136161  0.98399843    -0.74900
O312        O  0.31431934  0.84079448  0.99375065    -0.53800
C313        C  0.32047913  0.81963002  0.98617176     0.78900
O314        O  0.17123256  0.74534297  0.85962864    -0.59500
O315        O  0.14179321  0.71322755  0.92054020    -0.52500
C316        C  0.14856313  0.72057628  0.87494323     0.70900
O317        O  0.25959030  0.83164691  0.85963863    -0.74000
O318        O  0.29084873  0.86216213  0.92041027    -0.54600
C319        C  0.28420187  0.85449093  0.87492929     0.76900
O320        O  0.21390728  0.70376984  0.98423058    -0.59200
O321        O  0.16414030  0.68944669  0.99160570    -0.52300
C322        C  0.18569395  0.68378467  0.98438474     0.73500
Zr323      Zr  0.24692332  0.75765402  0.99553663     2.54700
O324        O  0.26927258  0.73615735  0.94148104    -0.79700
O325        O  0.26381111  0.74091694  0.06649638    -0.93200
Zr326      Zr  0.21392968  0.79019147  0.89454408     2.64700
O327        O  0.23175248  0.77351364  0.82447383    -0.98100
O328        O  0.19253720  0.81286701  0.84103549    -0.80200
O329        O  0.25576374  0.79842101  0.94348996    -0.83500
O330        O  0.20612053  0.74859030  0.94361329    -2.18200
O331        O  0.17289345  0.74458499  0.13639217    -0.66900
O332        O  0.14306647  0.71230881  0.07600145    -0.51500
C333        C  0.15010577  0.71974041  0.12160388     0.71800
O334        O  0.21630777  0.87594122  0.00689596    -0.59800
O335        O  0.26496118  0.88542607  0.00530241    -0.51800
C336        C  0.24527510  0.89391277  0.00871497     0.73700
O337        O  0.12648886  0.78549830  0.99637384    -0.71200
O338        O  0.11785752  0.73716902  0.99729310    -0.49900
C339        C  0.10873732  0.75644324  0.99640032     0.75000
O340        O  0.26068550  0.83140429  0.13449331    -0.66600
O341        O  0.29229395  0.86152201  0.07367501    -0.53800
C342        C  0.28536675  0.85426762  0.11921936     0.73400
Zr343      Zr  0.21557248  0.78867704  0.10025463     2.77500
O344        O  0.19766272  0.81281236  0.15778713    -0.97300
O345        O  0.23189130  0.76759574  0.16587512    -0.78100
Zr346      Zr  0.18231162  0.82032540  0.99971011     2.70100
O347        O  0.16336997  0.83641751  0.06886354    -0.79400
O348        O  0.16364403  0.84053504  0.93633635    -0.98500
Zr349      Zr  0.26566011  0.83891216  0.99738407     2.21500
Zr350      Zr  0.16523212  0.73774422  0.99784370     2.11100
O351        O  0.17341873  0.77865227  0.05060139    -2.47100
O352        O  0.22448902  0.82986348  0.04959751    -0.79200
O353        O  0.20645922  0.74702974  0.04958362    -0.71400
O354        O  0.22399890  0.83132795  0.94674774    -2.32300
O355        O  0.25708151  0.79789496  0.04932312    -2.28500
O356        O  0.17270091  0.77918179  0.94708707    -0.73100
H357        H  0.20150400  0.73184158  0.92197871     0.78900
H358        H  0.22928234  0.84907442  0.92716385     0.80000
H359        H  0.15601320  0.77305385  0.07126854     0.82200
H360        H  0.27463512  0.80255283  0.06890667     0.79800
H361        H  0.18131147  0.79742721  0.81545233     0.42800
H362        H  0.15317251  0.84924199  0.95495819     0.41800
H363        H  0.14253556  0.83087028  0.05953482     0.41500
H364        H  0.20006427  0.83074258  0.13988314     0.39400
H365        H  0.25421391  0.77950387  0.16531976     0.42500
H366        H  0.27469577  0.73133355  0.05198818     0.37300
H367        H  0.27003778  0.74504684  0.90868458     0.43400
H368        H  0.22880392  0.75361280  0.83447846     0.39900
H369        H  0.17556650  0.79905068  0.15964676     0.44800
H370        H  0.24511680  0.72389131  0.08037854     0.43500
H371        H  0.21678676  0.76894529  0.79792629     0.43600
H372        H  0.18189393  0.85824509  0.92278743     0.44000
O373        O  0.57684114  0.83095267  0.85804997    -0.74900
O374        O  0.57426747  0.86061647  0.91848427    -0.53800
C375        C  0.57419604  0.85337783  0.87297817     0.78900
O376        O  0.49276232  0.70225663  0.98622575    -0.59500
O377        O  0.52878221  0.68903196  0.99661728    -0.52500
C378        C  0.50134607  0.68261681  0.98953591     0.70900
O379        O  0.49360443  0.79066340  0.97924992    -0.74000
O380        O  0.52956980  0.83980634  0.99256506    -0.54600
C381        C  0.50231019  0.81889749  0.98341988     0.76900
O382        O  0.58039387  0.74552399  0.86162100    -0.59200
O383        O  0.57595355  0.71312320  0.92323368    -0.52300
C384        C  0.57774960  0.72066157  0.87752389     0.73500
Zr385      Zr  0.58146465  0.79007194  0.89503114     2.54700
O386        O  0.54809647  0.77204021  0.82369939    -0.79700
O387        O  0.62674315  0.81373837  0.84415689    -0.93200
Zr388      Zr  0.51346874  0.75674947  0.99104885     2.64700
O389        O  0.47626045  0.73749336  0.92485659    -0.98100
O390        O  0.47445434  0.73880847  0.05427486    -0.80200
O391        O  0.54696620  0.79813403  0.94140743    -0.83500
O392        O  0.54647496  0.74790651  0.94234402    -2.18200
O393        O  0.66163336  0.78501654  0.00251792    -0.66900
O394        O  0.62163111  0.73680356  0.00127938    -0.51500
C395        C  0.65001989  0.75590944  0.00173714     0.71800
O396        O  0.57150688  0.83138190  0.13306822    -0.59800
O397        O  0.57265763  0.86229047  0.07147220    -0.51800
C398        C  0.57084778  0.85474996  0.11717083     0.73700
O399        O  0.56908102  0.74228140  0.13683879    -0.71200
O400        O  0.57172535  0.71228446  0.07704353    -0.49900
C401        C  0.56917380  0.71842064  0.12224434     0.75000
O402        O  0.66250784  0.87605327  0.00680376    -0.66600
O403        O  0.62324177  0.88516361  0.00139933    -0.53800
C404        C  0.65144958  0.89394127  0.00527020     0.73400
Zr405      Zr  0.64105847  0.82023504  0.00437198     2.77500
O406        O  0.67448061  0.83601389  0.07574411    -0.97300
O407        O  0.68259498  0.84206042  0.94556248    -0.78100
Zr408      Zr  0.57351266  0.78785500  0.10076073     2.70100
O409        O  0.61471461  0.80767063  0.16017258    -0.79400
O410        O  0.53459955  0.76974687  0.16426361    -0.98500
Zr411      Zr  0.57636939  0.83828191  0.99650986     2.21500
Zr412      Zr  0.57546217  0.73777101  0.99949260     2.11100
O413        O  0.60690243  0.77831123  0.05377353    -2.47100
O414        O  0.60739035  0.82960263  0.05207065    -0.79200
O415        O  0.61075387  0.77935026  0.95021177    -0.71400
O416        O  0.54253482  0.79680411  0.04643354    -2.32300
O417        O  0.61144470  0.83088278  0.94851844    -2.28500
O418        O  0.54218288  0.74659245  0.04832926    -0.73100
H419        H  0.53476726  0.73090512  0.92088175     0.78900
H420        H  0.52930895  0.80150361  0.06495581     0.80000
H421        H  0.61809956  0.77250892  0.07544292     0.82200
H422        H  0.62429171  0.84860511  0.92911464     0.79800
H423        H  0.45665929  0.72152539  0.03882068     0.42800
H424        H  0.54435858  0.78302351  0.19306674     0.41800
H425        H  0.60476735  0.79981396  0.19244850     0.41500
H426        H  0.67156764  0.81703474  0.09044810     0.39400
H427        H  0.70072869  0.85449300  0.96595864     0.42500
H428        H  0.61912591  0.81193985  0.81002530     0.37300
H429        H  0.53088916  0.77476255  0.83287081     0.43400
H430        H  0.48139650  0.72459667  0.90460191     0.39900
H431        H  0.69506516  0.84578919  0.06154167     0.44800
H432        H  0.63466791  0.79964955  0.84542708     0.43500
H433        H  0.45699558  0.72319391  0.94118806     0.43600
H434        H  0.51986846  0.77543664  0.15228678     0.44000
O435        O  0.21691970  0.51126569  0.98570885    -0.74900
O436        O  0.16718895  0.47673362  0.99785177    -0.53800
C437        C  0.18892402  0.50365685  0.98883266     0.78900
O438        O  0.25916079  0.42386913  0.86706212    -0.59500
O439        O  0.28963228  0.42384154  0.92841466    -0.52500
C440        C  0.28307032  0.42424458  0.88268317     0.70900
O441        O  0.17488925  0.43081828  0.86337878    -0.74000
O442        O  0.14408501  0.43197348  0.92318690    -0.54600
C443        C  0.15223012  0.43323956  0.87788269     0.76900
O444        O  0.30235106  0.50778528  0.99160582    -0.59200
O445        O  0.31419349  0.47064672  0.00032130    -0.52300
C446        C  0.32132291  0.49832197  0.99346254     0.73500
Zr447      Zr  0.24848092  0.48904729  0.00080044     2.54700
O448        O  0.27355521  0.53406381  0.94950596    -0.79700
O449        O  0.26414523  0.52058109  0.07441651    -0.93200
Zr450      Zr  0.21455045  0.42356531  0.89954948     2.64700
O451        O  0.23318871  0.45702690  0.82819313    -0.98100
O452        O  0.19040275  0.37831887  0.84872612    -0.80200
O453        O  0.20754891  0.45808873  0.94809701    -0.83500
O454        O  0.25636329  0.45634245  0.94922910    -2.18200
O455        O  0.25970270  0.43150164  0.14118550    -0.66900
O456        O  0.29013534  0.42943040  0.08158327    -0.51500
C457        C  0.28382212  0.43195327  0.12664231     0.71800
O458        O  0.12617612  0.34149961  0.00565817    -0.59800
O459        O  0.11800768  0.38150153  0.00232977    -0.51800
C460        C  0.10875786  0.35303189  0.00405429     0.73700
O461        O  0.21430643  0.33886790  0.00886843    -0.71200
O462        O  0.26333628  0.37738070  0.01012834    -0.49900
C463        C  0.24313884  0.34925543  0.01144872     0.75000
O464        O  0.17150677  0.43034381  0.13757884    -0.66600
O465        O  0.14239175  0.43248762  0.07582594    -0.53800
C466        C  0.14904874  0.43254491  0.12156983     0.73400
Zr467      Zr  0.21394833  0.42664163  0.10547630     2.77500
O468        O  0.19138504  0.38321371  0.16069964    -0.97300
O469        O  0.22895667  0.46067082  0.17583655    -0.78100
Zr470      Zr  0.18144320  0.36183708  0.00547685     2.70100
O471        O  0.16325686  0.32915801  0.07764626    -0.79400
O472        O  0.16139235  0.32167118  0.94407864    -0.98500
Zr473      Zr  0.16587436  0.42837578  0.00076534     2.21500
Zr474      Zr  0.26468165  0.42493504  0.00407910     2.11100
O475        O  0.22308181  0.39364071  0.05685172    -2.47100
O476        O  0.17245243  0.39520767  0.05449524    -0.79200
O477        O  0.25662731  0.45792811  0.05547465    -0.71400
O478        O  0.17278084  0.39358403  0.95121118    -2.32300
O479        O  0.20701486  0.45991903  0.05341656    -2.28500
O480        O  0.22321838  0.39192578  0.95273273    -0.73100
H481        H  0.27356735  0.46800959  0.92810841     0.78900
H482        H  0.15522355  0.38156092  0.93097834     0.80000
H483        H  0.22791285  0.38162529  0.07837830     0.82200
H484        H  0.20277964  0.47324674  0.07266429     0.79800
H485        H  0.19223286  0.38594999  0.81459627     0.42800
H486        H  0.17931238  0.32436846  0.92573967     0.41800
H487        H  0.14874173  0.33394802  0.09353202     0.41500
H488        H  0.20827650  0.38542924  0.18145493     0.39400
H489        H  0.24621883  0.47976360  0.16359116     0.42500
H490        H  0.26420016  0.53918360  0.06430053     0.37300
H491        H  0.27375141  0.52631356  0.91609801     0.43400
H492        H  0.25346776  0.47342358  0.83807242     0.39900
H493        H  0.17864951  0.38715901  0.18352092     0.44800
H494        H  0.28573304  0.52693575  0.07856723     0.43500
H495        H  0.23705275  0.44562809  0.80249181     0.43600
H496        H  0.15456689  0.30293191  0.96340296     0.44000
O497        O  0.42755859  0.17157888  0.86161972    -0.74900
O498        O  0.42886553  0.14103169  0.92171345    -0.53800
C499        C  0.42929873  0.14863454  0.87619853     0.78900
O500        O  0.50752300  0.30072051  0.98814032    -0.59500
O501        O  0.47057954  0.31294531  0.99581568    -0.52500
C502        C  0.49822906  0.31982762  0.98960115     0.70900
O503        O  0.51041446  0.21484763  0.99970250    -0.74000
O504        O  0.47551390  0.16459269  0.00023235    -0.54600
C505        C  0.50287592  0.18686186  0.00172905     0.76900
O506        O  0.42243940  0.25587891  0.86203684    -0.59200
O507        O  0.42482909  0.28794966  0.92278140    -0.52300
C508        C  0.42461381  0.28071525  0.87724047     0.73500
Zr509      Zr  0.42133990  0.21156246  0.89723260     2.54700
O510        O  0.45415198  0.23052243  0.82528906    -0.79700
O511        O  0.37669652  0.18538877  0.84526942    -0.93200
Zr512      Zr  0.48811420  0.24669846  0.99454049     2.64700
O513        O  0.52323629  0.26245213  0.92537859    -0.98100
O514        O  0.52921428  0.26995417  0.05384898    -0.80200
O515        O  0.45646766  0.20459569  0.94448885    -0.83500
O516        O  0.45475781  0.25416599  0.94472940    -2.18200
O517        O  0.33876531  0.21358985  0.00724270    -0.66900
O518        O  0.37706425  0.26277055  0.00597335    -0.51500
C519        C  0.34902586  0.24244042  0.00831102     0.71800
O520        O  0.42989326  0.17318818  0.13791252    -0.59800
O521        O  0.43068139  0.14221727  0.07801635    -0.51800
C522        C  0.43119676  0.14999861  0.12340069     0.73700
O523        O  0.43221079  0.26149400  0.13622970    -0.71200
O524        O  0.42939960  0.29112255  0.07615424    -0.49900
C525        C  0.43245794  0.28543581  0.12136306     0.75000
O526        O  0.34140611  0.12514889  0.00905840    -0.66600
O527        O  0.38093076  0.11623759  0.00645526    -0.53800
C528        C  0.35261604  0.10742213  0.00957253     0.73400
Zr529      Zr  0.36127077  0.18035912  0.00466426     2.77500
O530        O  0.32447590  0.16043960  0.07144882    -0.97300
O531        O  0.32331283  0.15959017  0.93990976    -0.78100
Zr532      Zr  0.42745473  0.21528581  0.10258670     2.70100
O533        O  0.38538635  0.19549116  0.16033404    -0.79400
O534        O  0.46433626  0.23080809  0.16919506    -0.98500
Zr535      Zr  0.42740513  0.16413364  0.99995852     2.21500
Zr536      Zr  0.42446452  0.26378928  0.00006705     2.11100
O537        O  0.39355303  0.22294918  0.05434818    -2.47100
O538        O  0.39540824  0.17268557  0.05381516    -0.79200
O539        O  0.39054277  0.22153000  0.95037196    -0.71400
O540        O  0.45929592  0.20670115  0.04990191    -2.32300
O541        O  0.39216757  0.17052012  0.95084543    -2.28500
O542        O  0.45840459  0.25654333  0.05021512    -0.73100
H543        H  0.46643665  0.27110907  0.92312236     0.78900
H544        H  0.47257890  0.20286958  0.07000375     0.80000
H545        H  0.38179207  0.22814907  0.07582924     0.82200
H546        H  0.37980338  0.15251032  0.93177859     0.79800
H547        H  0.51915410  0.26832640  0.08581143     0.42800
H548        H  0.48403573  0.24400559  0.15317497     0.41800
H549        H  0.39484813  0.20386610  0.19271283     0.41500
H550        H  0.33020949  0.17784085  0.09366839     0.39400
H551        H  0.30461422  0.15656249  0.95593001     0.42500
H552        H  0.36981210  0.16366422  0.84931833     0.37300
H553        H  0.47339285  0.23226490  0.83627694     0.43400
H554        H  0.51337082  0.26768965  0.89886666     0.39900
H555        H  0.30530635  0.15655721  0.05613891     0.44800
H556        H  0.38467530  0.19006703  0.81114919     0.43500
H557        H  0.54058740  0.28205812  0.93566831     0.43600
H558        H  0.46094038  0.24450329  0.19056458     0.44000
C559        C  0.31503778  0.28760637  0.03020546     0.20800
C560        C  0.31552640  0.31421656  0.04356905    -0.39100
C561        C  0.28932178  0.31522906  0.03334864     0.19700
C562        C  0.26420658  0.29165072  0.01125913     0.22400
C563        C  0.26366729  0.26462481  0.99803842    -0.39600
C564        C  0.29014887  0.26347892  0.00861184     0.21200
N565        N  0.33803755  0.28230398  0.03363006    -0.32900
C566        C  0.32824329  0.25447473  0.01444704    -0.10400
C567        C  0.29820075  0.24171057  0.99871522    -0.29300
N568        N  0.24312569  0.29968483  0.00231311    -0.45900
C569        C  0.25540256  0.32867174  0.01852370    -0.05100
C570        C  0.28397501  0.33873439  0.03846321    -0.22500
H571        H  0.33534390  0.33323516  0.05944628     0.19300
H572        H  0.24445909  0.24624819  0.97974361     0.18100
H573        H  0.28467766  0.22022399  0.98045616     0.14400
H574        H  0.29950010  0.36100586  0.05273877     0.14200
H575        H  0.35956804  0.29720751  0.04732947     0.32400
H576        H  0.22255296  0.28693900  0.98409586     0.35200
C577        C  0.44661769  0.60346120  0.99564893     0.20800
C578        C  0.43060689  0.57419617  0.01638441    -0.39100
C579        C  0.40124771  0.55519383  0.99761111     0.19700
C580        C  0.38917743  0.56492703  0.96113759     0.22400
C581        C  0.40495714  0.59386290  0.94081497    -0.39600
C582        C  0.43387373  0.61262282  0.95948545     0.21200
N583        N  0.47366512  0.62685306  0.00952162    -0.32900
C584        C  0.47748016  0.65088361  0.98239141    -0.10400
C585        C  0.45321132  0.64268024  0.95076039    -0.29300
N586        N  0.36015681  0.54460723  0.95311738    -0.45900
C587        C  0.35303176  0.52156725  0.98473731    -0.05100
C588        C  0.37823557  0.52696860  0.01280202    -0.22500
H589        H  0.43975493  0.56723351  0.04628273     0.19300
H590        H  0.39480327  0.60173338  0.91399430     0.18100
H591        H  0.44948246  0.65726732  0.92643454     0.14400
H592        H  0.37886034  0.51355562  0.04315243     0.14200
H593        H  0.48762739  0.62696742  0.03769863     0.32400
H594        H  0.34539881  0.54719266  0.92971290     0.35200
C595        C  0.26722100  0.97297310  0.01378643     0.20800
C596        C  0.26607923  0.99970408  0.00541955    -0.39100
C597        C  0.29348830  0.02725302  0.01251432     0.19700
C598        C  0.31968134  0.02771318  0.02657190     0.22400
C599        C  0.32072775  0.00137653  0.03528160    -0.39600
C600        C  0.29371212  0.97427937  0.02838360     0.21200
N601        N  0.24530336  0.94384014  0.00658773    -0.32900
C602        C  0.25845222  0.92693764  0.01637653    -0.10400
C603        C  0.28843317  0.94534997  0.03053261    -0.29300
N604        N  0.34311108  0.05597405  0.02795116    -0.45900
C605        C  0.33234171  0.07432694  0.01491129    -0.05100
C606        C  0.30123152  0.05726379  0.00536676    -0.22500
H607        H  0.24570745  0.99912125  0.99307522     0.19300
H608        H  0.34146012  0.00193440  0.04528930     0.18100
H609        H  0.30476461  0.93850481  0.03921837     0.14400
H610        H  0.28661300  0.06554236  0.99305069     0.14200
H611        H  0.22341059  0.93611915  0.99374471     0.32400
H612        H  0.36542632  0.06235025  0.03645231     0.35200
C613        C  0.18912165  0.57126125  0.95645102     0.20800
C614        C  0.20222008  0.60059254  0.93776694    -0.39100
C615        C  0.18830049  0.61697850  0.95145985     0.19700
C616        C  0.16290007  0.60518645  0.98119934     0.22400
C617        C  0.14941611  0.57538493  0.99947089    -0.39600
C618        C  0.16361574  0.55887441  0.98599012     0.21200
N619        N  0.20038483  0.55271580  0.95297082    -0.32900
C620        C  0.18207083  0.52804292  0.98021104    -0.10400
C621        C  0.15857519  0.53081194  0.00115045    -0.29300
N622        N  0.15672741  0.62704752  0.99408250    -0.45900
C623        C  0.17888641  0.65279807  0.97312449    -0.05100
C624        C  0.19850329  0.64712450  0.94569633    -0.22500
H625        H  0.22295305  0.61062234  0.91660861     0.19300
H626        H  0.13039487  0.56634631  0.02452627     0.18100
H627        H  0.14138076  0.51533503  0.02640910     0.14400
H628        H  0.21911698  0.66349411  0.92746912     0.14200
H629        H  0.22007245  0.55707589  0.93445235     0.32400
H630        H  0.14023073  0.62512563  0.01887654     0.35200
C631        C  0.39896445  0.84184964  0.99008456     0.20800
C632        C  0.42822668  0.85409990  0.01033810    -0.39100
C633        C  0.44611807  0.84259572  0.99112756     0.19700
C634        C  0.43528248  0.82040293  0.95514485     0.22400
C635        C  0.40640861  0.80837910  0.93504494    -0.39600
C636        C  0.38885672  0.81993600  0.95372357     0.21200
N637        N  0.37637261  0.84656369  0.00458813    -0.32900
C638        C  0.35193190  0.82716672  0.97735541    -0.10400
C639        C  0.35908939  0.81052117  0.94517021    -0.29300
N640        N  0.45481488  0.81080277  0.94640514    -0.45900
C641        C  0.47861244  0.82687413  0.97663769    -0.05100
C642        C  0.47431811  0.84734385  0.00486855    -0.22500
H643        H  0.43603444  0.87044231  0.04001984     0.19300
H644        H  0.39771404  0.79028748  0.90819499     0.18100
H645        H  0.34387014  0.79238661  0.92101428     0.14400
H646        H  0.48867930  0.86187117  0.03405663     0.14200
H647        H  0.37692647  0.86037196  0.03342798     0.32400
H648        H  0.45147597  0.79321018  0.92288940     0.35200
C649        C  0.71048915  0.02807505  0.00800066     0.20800
C650        C  0.68284496  0.00197691  0.01641722    -0.39100
C651        C  0.68281909  0.97483039  0.01266940     0.19700
C652        C  0.70826551  0.97322115  0.00111933     0.22400
C653        C  0.73634386  0.99976781  0.99219749    -0.39600
C654        C  0.73646681  0.02745186  0.99632485     0.21200
N655        N  0.71566064  0.05634634  0.00971584    -0.32900
C656        C  0.74524885  0.07468380  0.99922023    -0.10400
C657        C  0.75924542  0.05750169  0.99054813    -0.29300
N658        N  0.70129867  0.94393155  0.99874557    -0.45900
C659        C  0.67115752  0.92727373  0.00851373    -0.05100
C660        C  0.65925505  0.94602623  0.01757919    -0.22500
H661        H  0.66261921  0.00276794  0.02511597     0.19300
H662        H  0.75644101  0.99894920  0.98269436     0.18100
H663        H  0.78260808  0.06575930  0.98092350     0.14400
H664        H  0.63599218  0.93939565  0.02532687     0.14200
H665        H  0.69970762  0.06275456  0.01779986     0.32400
H666        H  0.71575647  0.93584809  0.98946554     0.35200
C667        C  0.02904800  0.32050752  0.98937718     0.20800
C668        C  0.00305805  0.32128619  0.97659624    -0.39100
C669        C  0.97588845  0.29413325  0.98140809     0.19700
C670        C  0.97419821  0.26781026  0.99808221     0.22400
C671        C  0.00059943  0.26699377  0.01095375    -0.39600
C672        C  0.02826708  0.29451065  0.00561352     0.21200
N673        N  0.05734205  0.34375832  0.98770740    -0.32900
C674        C  0.07548776  0.33306945  0.00229665    -0.10400
C675        C  0.05817751  0.30222506  0.01399539    -0.29300
N676        N  0.94492812  0.24556857  0.00171491    -0.45900
C677        C  0.92831325  0.25833806  0.98759406    -0.05100
C678        C  0.94707379  0.28842560  0.97427251    -0.22500
H679        H  0.00392095  0.34180689  0.96422424     0.19300
H680        H  0.99967092  0.24664810  0.02439888     0.18100
H681        H  0.06628374  0.28757739  0.02693828     0.14400
H682        H  0.94042274  0.30454268  0.96300698     0.14200
H683        H  0.06394431  0.36574266  0.97649595     0.32400
H684        H  0.93680880  0.22371904  0.01515302     0.35200
C685        C  0.61882764  0.18901770  0.02739690     0.20800
C686        C  0.60467169  0.20539308  0.03923322    -0.39100
C687        C  0.57423700  0.19175643  0.02704085     0.19700
C688        C  0.55849805  0.16361604  0.00510087     0.22400
C689        C  0.57287543  0.14697034  0.99320041    -0.39600
C690        C  0.60390473  0.16092282  0.00510764     0.21200
N691        N  0.64825778  0.19887889  0.03150159    -0.32900
C692        C  0.65296701  0.17740795  0.01139812    -0.10400
C693        C  0.62566612  0.15290165  0.99496929    -0.29300
N694        N  0.52999172  0.15697736  0.99448153    -0.45900
C695        C  0.52832238  0.18149775  0.00922561    -0.05100
C696        C  0.55541193  0.20333488  0.02990494    -0.22500
H697        H  0.61689349  0.22784898  0.05491991     0.19300
H698        H  0.56114579  0.12543304  0.97444833     0.18100
H699        H  0.62248440  0.13304919  0.97554128     0.14400
H700        H  0.56097718  0.22540989  0.04358384     0.14200
H701        H  0.66451456  0.21986127  0.04540201     0.32400
H702        H  0.51336104  0.13783216  0.97634835     0.35200
C703        C  0.02924995  0.73454510  0.99719714     0.20800
C704        C  0.00268510  0.73682656  0.99769446    -0.39100
C705        C  0.97479770  0.70908194  0.99994011     0.19700
C706        C  0.97408729  0.68175285  0.00197866     0.22400
C707        C  0.00013550  0.67953657  0.00124647    -0.39600
C708        C  0.02740152  0.70670005  0.99854843     0.21200
N709        N  0.05869465  0.75685076  0.99567583    -0.32900
C710        C  0.07517581  0.74256814  0.99594721    -0.10400
C711        C  0.05610669  0.71137710  0.99742062    -0.29300
N712        N  0.94576673  0.65860921  0.00362076    -0.45900
C713        C  0.92728478  0.67037497  0.00225655    -0.05100
C714        C  0.94460245  0.70212331  0.00004146    -0.22500
H715        H  0.00362599  0.75839979  0.99628496     0.19300
H716        H  0.99920727  0.65795527  0.00252105     0.18100
H717        H  0.06244133  0.69413952  0.99829639     0.14400
H718        H  0.93633363  0.71782833  0.99815536     0.14200
H719        H  0.06698371  0.78009518  0.99493688     0.32400
H720        H  0.93943929  0.63578847  0.00501051     0.35200
C721        C  0.70754230  0.67935499  0.99769616     0.20800
C722        C  0.67951167  0.67763038  0.99519616    -0.39100
C723        C  0.67995422  0.70504133  0.99796565     0.19700
C724        C  0.70620323  0.73256481  0.00285727     0.22400
C725        C  0.73469098  0.73430734  0.00554291    -0.39600
C726        C  0.73430636  0.70643397  0.00273274     0.21200
N727        N  0.71242915  0.65605114  0.99604021    -0.32900
C728        C  0.74261807  0.66765524  0.00007736    -0.10400
C729        C  0.75725399  0.69926122  0.00430038    -0.29300
N730        N  0.69972090  0.75523195  0.00462262    -0.45900
C731        C  0.66909912  0.74154107  0.00090376    -0.05100
C732        C  0.65637284  0.71033701  0.99671835    -0.22500
H733        H  0.65868633  0.65630006  0.99142305     0.19300
H734        H  0.75547685  0.75562041  0.00955762     0.18100
H735        H  0.78121368  0.71475787  0.00830126     0.14400
H736        H  0.63270579  0.69349446  0.99330785     0.14200
H737        H  0.69588346  0.63332679  0.99248685     0.32400
H738        H  0.71498408  0.77829929  0.00837970     0.35200
C739        C  0.82075217  0.38632830  0.04354754     0.20800
C740        C  0.80792643  0.40270973  0.06242099    -0.39100
C741        C  0.82010973  0.43219319  0.04493597     0.19700
C742        C  0.84350748  0.44486226  0.01110420     0.22400
C743        C  0.85667460  0.42837137  0.99235527    -0.39600
C744        C  0.84436289  0.39852249  0.01004264     0.21200
N745        N  0.81054161  0.35688632  0.05049336    -0.32900
C746        C  0.82760248  0.34981477  0.02149206    -0.10400
C747        C  0.84934305  0.37528613  0.99600204    -0.29300
N748        N  0.84827879  0.47215166  0.99625247    -0.45900
C749        C  0.82728963  0.47620949  0.02040940    -0.05100
C750        C  0.80977794  0.45195220  0.05142221    -0.22500
H751        H  0.78862414  0.39260940  0.08693018     0.19300
H752        H  0.87408541  0.43751467  0.96433432     0.18100
H753        H  0.86487584  0.37610305  0.96811834     0.14400
H754        H  0.79044500  0.44825452  0.07309609     0.14200
H755        H  0.79193537  0.34206080  0.07182767     0.32400
H756        H  0.86311978  0.48591854  0.96877313     0.35200
C757        C  0.60393462  0.44437777  0.99264708     0.20800
C758        C  0.57431128  0.42893139  0.01194945    -0.39100
C759        C  0.55527642  0.39963215  0.99309500     0.19700
C760        C  0.56524277  0.38720782  0.95753546     0.22400
C761        C  0.59450095  0.40250736  0.93842697    -0.39600
C762        C  0.61339286  0.43124834  0.95757253     0.21200
N763        N  0.62741940  0.47101446  0.00758232    -0.32900
C764        C  0.65178018  0.47411960  0.98238877    -0.10400
C765        C  0.64378292  0.44986560  0.95082497    -0.29300
N766        N  0.54489947  0.35817807  0.94983496    -0.45900
C767        C  0.52166742  0.35140627  0.98083110    -0.05100
C768        C  0.52690444  0.37684581  0.00805213    -0.22500
H769        H  0.56717259  0.43832255  0.04125474     0.19300
H770        H  0.60254564  0.39198751  0.91259391     0.18100
H771        H  0.65859765  0.44570750  0.92778226     0.14400
H772        H  0.51333213  0.37774924  0.03791090     0.14200
H773        H  0.62730294  0.48515875  0.03525847     0.32400
H774        H  0.54762973  0.34316687  0.92725331     0.35200
C775        C  0.46373744  0.38612570  0.26337673     0.20800
C776        C  0.45803832  0.38003466  0.21268738    -0.39100
C777        C  0.44971700  0.35056425  0.19793793     0.19700
C778        C  0.44748197  0.32904824  0.23125940     0.22400
C779        C  0.45327068  0.33514934  0.28174272    -0.39600
C780        C  0.46134477  0.36444159  0.29647186     0.21200
N781        N  0.47129507  0.41206116  0.28697608    -0.32900
C782        C  0.47344237  0.40669135  0.33543408    -0.10400
C783        C  0.46752934  0.37726814  0.34273071    -0.29300
N784        N  0.43998373  0.30307533  0.20819840    -0.45900
C785        C  0.43751675  0.30790768  0.15967178    -0.05100
C786        C  0.44323527  0.33728031  0.15174410    -0.22500
H787        H  0.45988484  0.39694629  0.18673453     0.19300
H788        H  0.45151323  0.31826503  0.30768315     0.18100
H789        H  0.46737127  0.36659230  0.37729784     0.14400
H790        H  0.44364368  0.34777158  0.11685719     0.14200
H791        H  0.47420544  0.43197156  0.27123179     0.32400
H792        H  0.43747126  0.28344105  0.22445278     0.35200
C793        C  0.44377239  0.34597617  0.80425868     0.20800
C794        C  0.45541724  0.37679154  0.79433058    -0.39100
C795        C  0.45793765  0.38463272  0.74418028     0.19700
C796        C  0.44979890  0.36341896  0.70695058     0.22400
C797        C  0.43833999  0.33271352  0.71685884    -0.39600
C798        C  0.43556458  0.32486246  0.76686256     0.21200
N799        N  0.43965932  0.33273815  0.84866147    -0.32900
C800        C  0.42880174  0.30301741  0.83930830    -0.10400
C801        C  0.42596109  0.29728556  0.78870514    -0.29300
N802        N  0.45483705  0.37655149  0.66243212    -0.45900
C803        C  0.46627566  0.40639455  0.67116790    -0.05100
C804        C  0.46842930  0.41233020  0.72178270    -0.22500
H805        H  0.46212316  0.39341788  0.82344021     0.19300
H806        H  0.43219080  0.31616643  0.68774400     0.18100
H807        H  0.41875719  0.27595908  0.77034586     0.14400
H808        H  0.47683214  0.43398386  0.73969984     0.14200
H809        H  0.44497078  0.34341559  0.88304079     0.32400
H810        H  0.45091222  0.36585294  0.62817435     0.35200
C811        C  0.61616488  0.53608509  0.26273965     0.20800
C812        C  0.62130757  0.53786075  0.21155849    -0.39100
C813        C  0.65146216  0.54941311  0.19704779     0.19700
C814        C  0.67455785  0.55822807  0.23103296     0.22400
C815        C  0.66943165  0.55646143  0.28206221    -0.39600
C816        C  0.63939318  0.54510543  0.29650597     0.21200
N817        N  0.58965094  0.52609820  0.28609432    -0.32900
C818        C  0.59612234  0.52881815  0.33504343    -0.10400
C819        C  0.62692866  0.54058911  0.34291476    -0.29300
N820        N  0.70091656  0.56704619  0.20817376    -0.45900
C821        C  0.69470327  0.56382810  0.15919132    -0.05100
C822        C  0.66409995  0.55314520  0.15068814    -0.22500
H823        H  0.60317213  0.53059878  0.18504520     0.19300
H824        H  0.68749243  0.56321172  0.30858651     0.18100
H825        H  0.63866195  0.54547730  0.37789463     0.14400
H826        H  0.65247683  0.54750665  0.11556573     0.14200
H827        H  0.56851780  0.51809849  0.26975249     0.32400
H828        H  0.72173532  0.57398012  0.22499772     0.35200
C829        C  0.63779782  0.54604732  0.70695114     0.20800
C830        C  0.66814659  0.55591295  0.71686643    -0.39100
C831        C  0.67627683  0.56027553  0.76670565     0.19700
C832        C  0.65581172  0.55530065  0.80402422     0.22400
C833        C  0.62528247  0.54520149  0.79411961    -0.39600
C834        C  0.61709972  0.54074479  0.74404859     0.21200
N835        N  0.62461560  0.54031316  0.66248246    -0.32900
C836        C  0.59524156  0.53123133  0.67106672    -0.10400
C837        C  0.58958962  0.53107104  0.72157333    -0.29300
N838        N  0.66912977  0.55997052  0.84843010    -0.45900
C839        C  0.69812971  0.56760733  0.83904922    -0.05100
C840        C  0.70342936  0.56820211  0.78851359    -0.22500
H841        H  0.68419839  0.55960112  0.68788503     0.19300
H842        H  0.60908973  0.54085502  0.82318628     0.18100
H843        H  0.56834091  0.52497123  0.73932666     0.14400
H844        H  0.72404427  0.57256000  0.77026941     0.14200
H845        H  0.63503435  0.54256252  0.62833987     0.32400
H846        H  0.65883210  0.55687266  0.88290736     0.35200
C847        C  0.54141221  0.61814898  0.26266537     0.20800
C848        C  0.54771750  0.62489174  0.21229195    -0.39100
C849        C  0.55559621  0.65435652  0.19830267     0.19700
C850        C  0.55723535  0.67543451  0.23205773     0.22400
C851        C  0.55120747  0.66879577  0.28235057    -0.39600
C852        C  0.54316116  0.63936668  0.29620524     0.21200
N853        N  0.53285546  0.59167592  0.28528385    -0.32900
C854        C  0.52924878  0.59621103  0.33354248    -0.10400
C855        C  0.53545696  0.62567804  0.34168539    -0.29300
N856        N  0.56340297  0.70115931  0.20932242    -0.45900
C857        C  0.56550632  0.69648874  0.16060418    -0.05100
C858        C  0.56108928  0.66763236  0.15226185    -0.22500
H859        H  0.54600588  0.60826731  0.18582978     0.19300
H860        H  0.55211792  0.68516974  0.30860703     0.18100
H861        H  0.53469349  0.63579748  0.37634758     0.14400
H862        H  0.56056620  0.65731305  0.11713141     0.14200
H863        H  0.53004067  0.57192017  0.26905134     0.32400
H864        H  0.56499021  0.72034787  0.22582242     0.35200
C865        C  0.56860143  0.67859795  0.76817096     0.20800
C866        C  0.56451640  0.67289720  0.71740154    -0.39100
C867        C  0.55330682  0.64283071  0.70353778     0.19700
C868        C  0.54676896  0.62018979  0.73758629     0.22400
C869        C  0.55083906  0.62589733  0.78840659    -0.39600
C870        C  0.56196478  0.65599813  0.80235513     0.21200
N871        N  0.57686763  0.70484552  0.79084976    -0.32900
C872        C  0.57516535  0.69892355  0.83985550    -0.10400
C873        C  0.56626148  0.66873999  0.84856090    -0.29300
N874        N  0.53601639  0.59344064  0.71496848    -0.45900
C875        C  0.53575542  0.59919863  0.66624985    -0.05100
C876        C  0.54631818  0.62972311  0.65763801    -0.22500
H877        H  0.56912766  0.69046179  0.69077976     0.19300
H878        H  0.54515554  0.60812414  0.81512918     0.18100
H879        H  0.56163696  0.65727460  0.88377781     0.14400
H880        H  0.54861996  0.64079776  0.62255032     0.14200
H881        H  0.58180132  0.72516613  0.77398246     0.32400
H882        H  0.52943048  0.57263307  0.73159520     0.35200
C883        C  0.38506612  0.46359745  0.26587291     0.20800
C884        C  0.37845480  0.45745539  0.21554895    -0.39100
C885        C  0.34872319  0.44846985  0.20193463     0.19700
C886        C  0.32728882  0.44571103  0.23595748     0.22400
C887        C  0.33384649  0.45169753  0.28622706    -0.39600
C888        C  0.36354745  0.46080519  0.29973549     0.21200
N889        N  0.41162897  0.47263396  0.28822535    -0.32900
C890        C  0.40683314  0.47548174  0.33660952    -0.10400
C891        C  0.37716159  0.46839373  0.34518944    -0.29300
N892        N  0.30118557  0.43832372  0.21352234    -0.45900
C893        C  0.30601958  0.43653605  0.16479476    -0.05100
C894        C  0.33534495  0.44247006  0.15607915    -0.22500
H895        H  0.39530208  0.45991616  0.18891300     0.19300
H896        H  0.31716719  0.44982012  0.31273784     0.18100
H897        H  0.36684140  0.46833940  0.38010503     0.14400
H898        H  0.34582755  0.44359466  0.12083672     0.14200
H899        H  0.43157821  0.47611901  0.27176454     0.32400
H900        H  0.28160752  0.43568556  0.23020390     0.35200
C901        C  0.38412690  0.45718352  0.74174733     0.20800
C902        C  0.37794037  0.45085380  0.79232980    -0.39100
C903        C  0.34777784  0.43975688  0.80657835     0.19700
C904        C  0.32559787  0.43513657  0.77279089     0.22400
C905        C  0.33174286  0.44129567  0.72237358    -0.39600
C906        C  0.36181876  0.45256804  0.70827193     0.21200
N907        N  0.41096831  0.46842178  0.71885519    -0.32900
C908        C  0.40560526  0.47083444  0.67046202    -0.10400
C909        C  0.37520373  0.46125203  0.66256649    -0.29300
N910        N  0.29940676  0.42698455  0.79570410    -0.45900
C911        C  0.30480277  0.42676553  0.84462359    -0.05100
C912        C  0.33468808  0.43418489  0.85291458    -0.22500
H913        H  0.39544393  0.45503266  0.81877609     0.19300
H914        H  0.31448094  0.43827898  0.69621596     0.18100
H915        H  0.36429618  0.46041031  0.62791911     0.14400
H916        H  0.34587284  0.43733501  0.88811152     0.14200
H917        H  0.43154376  0.47366087  0.73501175     0.32400
H918        H  0.27953052  0.42361979  0.77916278     0.35200
C919        C  0.92480799  0.54181431  0.26315405     0.20800
C920        C  0.92152206  0.54371088  0.21204708    -0.39100
C921        C  0.90111446  0.55300771  0.19785455     0.19700
C922        C  0.88519257  0.55968781  0.23203225     0.22400
C923        C  0.88855948  0.55790008  0.28292370    -0.39600
C924        C  0.90897694  0.54875664  0.29708147     0.21200
N925        N  0.94200479  0.53268055  0.28631281    -0.32900
C926        C  0.93689694  0.53373611  0.33523044    -0.10400
C927        C  0.91661746  0.54388166  0.34335711    -0.29300
N928        N  0.86650962  0.56701336  0.20948178    -0.45900
C929        C  0.87063620  0.56521602  0.16054277    -0.05100
C930        C  0.89205301  0.55653635  0.15166351    -0.22500
H931        H  0.93363729  0.53802660  0.18539866     0.19300
H932        H  0.87588847  0.56287653  0.30954324     0.18100
H933        H  0.90819773  0.54678174  0.37837184     0.14400
H934        H  0.89930932  0.55252179  0.11634909     0.14200
H935        H  0.95601744  0.52579896  0.26985731     0.32400
H936        H  0.85152774  0.57246389  0.22641265     0.35200
C937        C  0.93090523  0.54590217  0.74216522     0.20800
C938        C  0.92747761  0.54837047  0.79312891    -0.39100
C939        C  0.90713646  0.55799989  0.80647745     0.19700
C940        C  0.89157041  0.56469928  0.77167085     0.22400
C941        C  0.89517226  0.56247120  0.72095438    -0.39600
C942        C  0.91530158  0.55275698  0.70769963     0.21200
N943        N  0.94760757  0.53582266  0.71967385    -0.32900
C944        C  0.94232268  0.53619943  0.67065979    -0.10400
C945        C  0.92245373  0.54677697  0.66190498    -0.29300
N946        N  0.87209232  0.57130604  0.79345547    -0.45900
C947        C  0.87510489  0.56873719  0.84257640    -0.05100
C948        C  0.89696517  0.56074686  0.85226530    -0.22500
H949        H  0.93908887  0.54242708  0.82031989     0.19300
H950        H  0.88253133  0.56709925  0.69379159     0.18100
H951        H  0.91389983  0.54918896  0.62670041     0.14400
H952        H  0.90340060  0.55609649  0.88779952     0.14200
H953        H  0.96129950  0.52870822  0.73657687     0.32400
H954        H  0.85694117  0.57625583  0.77586501     0.35200
C955        C  0.90318821  0.36563756  0.29447964     0.20800
C956        C  0.88246857  0.33549304  0.28313981    -0.39100
C957        C  0.88008638  0.32781526  0.23309708     0.19700
C958        C  0.89707606  0.34844310  0.19681381     0.22400
C959        C  0.91785932  0.37872587  0.20815457    -0.39600
C960        C  0.92016954  0.38646988  0.25841640     0.21200
N961        N  0.90981548  0.37837847  0.33946995    -0.32900
C962        C  0.93123846  0.40761012  0.33221629    -0.10400
C963        C  0.93819536  0.41354534  0.28207312    -0.29300
N964        N  0.89000904  0.33535552  0.15193442    -0.45900
C965        C  0.86826919  0.30626671  0.16005194    -0.05100
C966        C  0.86158671  0.30081768  0.21016497    -0.22500
H967        H  0.86907338  0.31919864  0.31123631     0.19300
H968        H  0.93115486  0.39503727  0.18001381     0.18100
H969        H  0.95470874  0.43465603  0.26534476     0.14400
H970        H  0.84491309  0.27998108  0.22742966     0.14200
H971        H  0.90065178  0.36770325  0.37309614     0.32400
H972        H  0.89882008  0.34570398  0.11796314     0.35200
C973        C  0.92719465  0.38637108  0.74062654     0.20800
C974        C  0.92533010  0.38050506  0.79157985    -0.39100
C975        C  0.90532770  0.35047978  0.80545030     0.19700
C976        C  0.88868067  0.32823609  0.77105869     0.22400
C977        C  0.89062805  0.33407476  0.72042758    -0.39600
C978        C  0.91042186  0.36391462  0.70666591     0.21200
N979        N  0.94402396  0.41297119  0.71764585    -0.32900
C980        C  0.93777904  0.40714848  0.66885562    -0.10400
C981        C  0.91691290  0.37684005  0.66070001    -0.29300
N982        N  0.87002838  0.30202665  0.79325442    -0.45900
C983        C  0.87453770  0.30744000  0.84225851    -0.05100
C984        C  0.89662544  0.33737682  0.85151147    -0.22500
H985        H  0.93803084  0.39805183  0.81837997     0.19300
H986        H  0.87724512  0.31672332  0.69373199     0.18100
H987        H  0.90777924  0.36573037  0.62576256     0.14400
H988        H  0.90411310  0.34837629  0.88699009     0.14200
H989        H  0.95887526  0.43368083  0.73403981     0.32400
H990        H  0.85432536  0.28194808  0.77605351     0.35200
C991        C  0.10045570  0.44845146  0.19430687     0.20800
C992        C  0.08094641  0.45958054  0.20480343    -0.39100
C993        C  0.07538274  0.46139416  0.25512398     0.19700
C994        C  0.08828578  0.45276765  0.29188439     0.22400
C995        C  0.10755259  0.44153334  0.28141483    -0.39600
C996        C  0.11314614  0.43980411  0.23137366     0.21200
N997        N  0.11074129  0.44598687  0.14984016    -0.32900
C998        C  0.13022319  0.43591638  0.15906245    -0.10400
C999        C  0.13214524  0.43167679  0.20941615    -0.29300
N1000       N  0.08049304  0.45765141  0.33668845    -0.45900
C1001       C  0.06246162  0.46950217  0.32869079    -0.05100
C1002       C  0.05855348  0.47204873  0.27822398    -0.22500
H1003       H  0.07134868  0.46686210  0.17606754     0.19300
H1004       H  0.11799466  0.43525198  0.31021398     0.18100
H1005       H  0.14636227  0.42458489  0.22764226     0.14400
H1006       H  0.04555153  0.48088100  0.26088279     0.14200
H1007       H  0.10576700  0.45190047  0.11567616     0.32400
H1008       H  0.08725623  0.45339117  0.37066925     0.35200
C1009       C  0.12219968  0.44684730  0.76780325     0.20800
C1010       C  0.12062126  0.45139268  0.71706441    -0.39100
C1011       C  0.09855219  0.45841054  0.70274261     0.19700
C1012       C  0.07955846  0.46086220  0.73640124     0.22400
C1013       C  0.08113889  0.45631363  0.78725822    -0.39600
C1014       C  0.10320125  0.44918203  0.80160507     0.21200
N1015       N  0.14152554  0.44035392  0.79062032    -0.32900
C1016       C  0.13491850  0.43849643  0.83943175    -0.10400
C1017       C  0.11106716  0.44386089  0.84775730    -0.29300
N1018       N  0.06082842  0.46816674  0.71336854    -0.45900
C1019       C  0.06794536  0.47034509  0.66468980    -0.05100
C1020       C  0.09132314  0.46430969  0.65667420    -0.22500
H1021       H  0.13558609  0.44971283  0.69067593     0.19300
H1022       H  0.06639504  0.45832533  0.81369836     0.18100
H1023       H  0.10121116  0.44435244  0.88284908     0.14400
H1024       H  0.10181293  0.46450906  0.62187202     0.14200
H1025       H  0.15849150  0.43775992  0.77398135     0.32400
H1026       H  0.04424678  0.47147859  0.72975616     0.35200
C1027       C  0.09969075  0.65703752  0.19714529     0.20800
C1028       C  0.07789829  0.62697422  0.20790666    -0.39100
C1029       C  0.07504380  0.61872230  0.25794664     0.19700
C1030       C  0.09239259  0.63897351  0.29439684     0.22400
C1031       C  0.11392556  0.66901967  0.28374745    -0.39600
C1032       C  0.11692993  0.67716591  0.23381193     0.21200
N1033       N  0.10838306  0.66989851  0.15228985    -0.32900
C1034       C  0.13145576  0.69832755  0.16057714    -0.10400
C1035       C  0.13719901  0.70370183  0.21103585    -0.29300
N1036       N  0.08622026  0.62545455  0.33873056    -0.45900
C1037       C  0.06483425  0.59629190  0.33067499    -0.05100
C1038       C  0.05717111  0.59122386  0.28068727    -0.22500
H1039       H  0.06474803  0.61098279  0.17931532     0.19300
H1040       H  0.12792429  0.68468171  0.31212199     0.18100
H1041       H  0.15481220  0.72387525  0.22857977     0.14400
H1042       H  0.04086234  0.57025642  0.26334835     0.14200
H1043       H  0.10000111  0.65959445  0.11815625     0.32400
H1044       H  0.09614277  0.63544210  0.37239686     0.35200
C1045       C  0.07749300  0.61956256  0.73599821     0.20800
C1046       C  0.07931224  0.62578814  0.78667724    -0.39100
C1047       C  0.09908981  0.65586211  0.80004264     0.19700
C1048       C  0.11572476  0.67802638  0.76552950     0.22400
C1049       C  0.11373616  0.67187053  0.71483025    -0.39600
C1050       C  0.09402644  0.64179352  0.70152622     0.21200
N1051       N  0.06100301  0.59262948  0.71394188    -0.32900
C1052       C  0.06709711  0.59783292  0.66508239    -0.10400
C1053       C  0.08755105  0.62822386  0.65592565    -0.29300
N1054       N  0.13445200  0.70426106  0.78787607    -0.45900
C1055       C  0.12980703  0.69873086  0.83698050    -0.05100
C1056       C  0.10770641  0.66886603  0.84601682    -0.22500
H1057       H  0.06681327  0.60837217  0.81378452     0.19300
H1058       H  0.12707812  0.68906270  0.68786077     0.18100
H1059       H  0.09648324  0.63891857  0.62063015     0.14400
H1060       H  0.10023812  0.65776007  0.88142402     0.14200
H1061       H  0.04646672  0.57205647  0.73103492     0.32400
H1062       H  0.15033873  0.72431545  0.77080723     0.35200
C1063       C  0.36651271  0.91092610  0.29094260     0.20800
C1064       C  0.33601042  0.89143856  0.28028432    -0.39100
C1065       C  0.32850952  0.88745652  0.23016757     0.19700
C1066       C  0.34967575  0.90183734  0.19322996     0.22400
C1067       C  0.38030153  0.92152222  0.20392882    -0.39600
C1068       C  0.38785661  0.92546503  0.25429077     0.21200
N1069       N  0.37931950  0.91783104  0.33574675    -0.32900
C1070       C  0.40909962  0.93694806  0.32782425    -0.10400
C1071       C  0.41533826  0.94237412  0.27743968    -0.29300
N1072       N  0.33682126  0.89292683  0.14848322    -0.45900
C1073       C  0.30737159  0.87259372  0.15734298    -0.05100
C1074       C  0.30137659  0.86878384  0.20780655    -0.22500
H1075       H  0.31940900  0.87976940  0.30892437     0.19300
H1076       H  0.39704440  0.93251801  0.17523790     0.18100
H1077       H  0.43699487  0.95676588  0.26017154     0.14400
H1078       H  0.28023235  0.85344340  0.22574527     0.14200
H1079       H  0.36839996  0.91011893  0.36967446     0.32400
H1080       H  0.34762585  0.89926410  0.11424505     0.35200
C1081       C  0.32674496  0.88645524  0.76528651     0.20800
C1082       C  0.33189195  0.88993039  0.71431754    -0.44500
C1083       C  0.36183488  0.90925077  0.70015168     0.19700
C1084       C  0.38489841  0.92389740  0.73413310     0.22400
C1085       C  0.37975850  0.92035083  0.78515456    -0.39600
C1086       C  0.34973617  0.90113983  0.79937334     0.21200
N1087       N  0.30040170  0.86879794  0.78806253    -0.32900
C1088       C  0.30657948  0.87231291  0.83702915    -0.10400
C1089       C  0.33712498  0.89236436  0.84562509    -0.29300
N1090       N  0.41140490  0.94068964  0.71115935    -0.45900
C1091       C  0.40510010  0.93655737  0.66227678    -0.05100
C1092       C  0.37442012  0.91718390  0.65391186    -0.22500
H1093       H  0.31394529  0.87829559  0.68768592     0.19300
H1094       H  0.39780256  0.93157784  0.81175002     0.18100
H1095       H  0.34868318  0.89875363  0.88079141     0.14400
H1096       H  0.36293995  0.90979740  0.61878441     0.14200
H1097       H  0.27960214  0.85473524  0.77125675     0.32400
H1098       H  0.43246553  0.95397425  0.72769881     0.35200
C1099       C  0.54511094  0.92972430  0.25722854     0.20800
C1100       C  0.55175437  0.92934762  0.20676845    -0.39100
C1101       C  0.55751229  0.90626847  0.19222459     0.19700
C1102       C  0.55657926  0.88533867  0.22555903     0.22400
C1103       C  0.55000042  0.88574062  0.27560770    -0.39600
C1104       C  0.54445730  0.90872615  0.29008379     0.21200
N1105       N  0.53843313  0.94889474  0.28065463    -0.32900
C1106       C  0.53366854  0.93995158  0.32868876    -0.10400
C1107       C  0.53734924  0.91504796  0.33580314    -0.29300
N1108       N  0.56206857  0.86528084  0.20306099    -0.45900
C1109       C  0.56653911  0.87314531  0.15476895    -0.05100
C1110       C  0.56395957  0.89875424  0.14641549    -0.22500
H1111       H  0.55220834  0.94562722  0.18079888     0.19300
H1112       H  0.54910862  0.86918978  0.30143847     0.18100
H1113       H  0.53485942  0.90297361  0.36987520     0.14400
H1114       H  0.56579513  0.90985201  0.11153274     0.14200
H1115       H  0.53726928  0.96693018  0.26503133     0.32400
H1116       H  0.56204677  0.84682806  0.21955076     0.35200
C1117       C  0.55088717  0.91255578  0.70240322     0.20800
C1118       C  0.56319658  0.89406208  0.71250001    -0.39100
C1119       C  0.56522555  0.88832756  0.76253595     0.19700
C1120       C  0.55600041  0.90034540  0.79985869     0.22400
C1121       C  0.54379812  0.91901873  0.78978012    -0.39600
C1122       C  0.54153787  0.92457054  0.73955295     0.21200
N1123       N  0.54578831  0.92054789  0.65775740    -0.32900
C1124       C  0.53310440  0.93786585  0.66620834    -0.10400
C1125       C  0.53009318  0.94089675  0.71691270    -0.29300
N1126       N  0.55904270  0.89030035  0.84418780    -0.45900
C1127       C  0.57003706  0.87156619  0.83491330    -0.05100
C1128       C  0.57425058  0.86985942  0.78437722    -0.22500
H1129       H  0.57008971  0.88430073  0.68343030     0.19300
H1130       H  0.53609416  0.92805531  0.81882052     0.18100
H1131       H  0.52076405  0.95332119  0.73475856     0.14400
H1132       H  0.58195481  0.85617844  0.76598765     0.14200
H1133       H  0.55065499  0.91454894  0.62356224     0.32400
H1134       H  0.55288631  0.89493430  0.87843678     0.35200
C1135       C  0.67540495  0.11857543  0.22997687     0.20800
C1136       C  0.66940066  0.11835737  0.28048921    -0.39100
C1137       C  0.63922003  0.10002151  0.29444662     0.19700
C1138       C  0.61668211  0.08311547  0.26072006     0.22400
C1139       C  0.62272401  0.08318210  0.21009532    -0.39600
C1140       C  0.65301243  0.10161323  0.19605069     0.21200
N1141       N  0.70193586  0.13561178  0.20725755    -0.32900
C1142       C  0.69655112  0.12972323  0.15836345    -0.10400
C1143       C  0.66630332  0.10831846  0.14989971    -0.29300
N1144       N  0.58994471  0.06718103  0.28367322    -0.45900
C1145       C  0.59565246  0.07385068  0.33235800    -0.05100
C1146       C  0.62610191  0.09441483  0.34041753    -0.22500
H1147       H  0.68691711  0.13174499  0.30693145     0.19300
H1148       H  0.60512254  0.07012774  0.18358737     0.18100
H1149       H  0.65521419  0.10015939  0.11465742     0.14400
H1150       H  0.63730854  0.10321618  0.37539819     0.14200
H1151       H  0.72220542  0.15133906  0.22391659     0.32400
H1152       H  0.56931776  0.05196736  0.26743013     0.35200
C1153       C  0.63913845  0.09145859  0.70383655     0.20800
C1154       C  0.66942238  0.11225312  0.71409334    -0.39100
C1155       C  0.67766575  0.11508119  0.76388219     0.19700
C1156       C  0.65741223  0.09832124  0.80077575     0.22400
C1157       C  0.62706184  0.07736824  0.79044770    -0.39600
C1158       C  0.61871826  0.07471002  0.74053342     0.21200
N1159       N  0.62557945  0.08543840  0.65961727    -0.32900
C1160       C  0.59623451  0.06474371  0.66801212    -0.10400
C1161       C  0.59105024  0.05743734  0.71810103    -0.29300
N1162       N  0.67042252  0.10694829  0.84544256    -0.45900
C1163       C  0.69896876  0.12965163  0.83672190    -0.05100
C1164       C  0.70438721  0.13505440  0.78628816    -0.22500
H1165       H  0.68520373  0.12588547  0.68555359     0.19300
H1166       H  0.61096788  0.06472055  0.81924595     0.18100
H1167       H  0.56993139  0.04167775  0.73567219     0.14400
H1168       H  0.72464069  0.15243650  0.76856085     0.14200
H1169       H  0.63568742  0.09494641  0.62579328     0.32400
H1170       H  0.66006117  0.09904099  0.87970671     0.35200
C1171       C  0.44286133  0.09987513  0.19962430     0.20800
C1172       C  0.45032390  0.07767932  0.21078691    -0.39100
C1173       C  0.45544820  0.07494845  0.26084118     0.19700
C1174       C  0.45298191  0.09270671  0.29702752     0.22400
C1175       C  0.44546805  0.11480418  0.28594257    -0.39600
C1176       C  0.44065911  0.11772984  0.23591744     0.21200
N1177       N  0.43874028  0.10827986  0.15462730    -0.32900
C1178       C  0.43414475  0.13179690  0.16253457    -0.10400
C1179       C  0.43503826  0.13820126  0.21276606    -0.29300
N1180       N  0.46008823  0.08654847  0.34145408    -0.45900
C1181       C  0.46746562  0.06495576  0.33337915    -0.05100
C1182       C  0.46466660  0.05696632  0.28365414    -0.22500
H1183       H  0.45278051  0.06413555  0.18249972     0.19300
H1184       H  0.44427695  0.12921682  0.31401886     0.18100
H1185       H  0.43300021  0.15619700  0.22991456     0.14400
H1186       H  0.46920736  0.04056374  0.26648070     0.14200
H1187       H  0.44004020  0.09931080  0.12069288     0.32400
H1188       H  0.46046259  0.09681396  0.37498497     0.35200
C1189       C  0.45248454  0.09126726  0.70326719     0.20800
C1190       C  0.44432383  0.11301411  0.71383993    -0.39100
C1191       C  0.43916500  0.11601476  0.76377605     0.19700
C1192       C  0.44173387  0.09858681  0.80041040     0.22400
C1193       C  0.44972918  0.07667708  0.78971145    -0.39600
C1194       C  0.45512624  0.07381567  0.73976386     0.21200
N1195       N  0.45965013  0.08488955  0.65899729    -0.32900
C1196       C  0.46705146  0.06330301  0.66729251    -0.10400
C1197       C  0.46444292  0.05572991  0.71723529    -0.29300
N1198       N  0.43749548  0.10715393  0.84525950    -0.45900
C1199       C  0.43245080  0.13036856  0.83707237    -0.05100
C1200       C  0.43305638  0.13632337  0.78663320    -0.22500
H1201       H  0.44286983  0.12709767  0.68543989     0.19300
H1202       H  0.45232135  0.06339319  0.81829575     0.18100
H1203       H  0.46892255  0.03936559  0.73467892     0.14400
H1204       H  0.43062371  0.15399973  0.76916885     0.14200
H1205       H  0.45982715  0.09487753  0.62528151     0.32400
H1206       H  0.43910061  0.09853511  0.87934111     0.35200
loop_ 
_geom_bond_atom_site_label_1 
_geom_bond_atom_site_label_2 
_geom_bond_distance 
_geom_bond_site_symmetry_2 
_ccdc_geom_bond_type 
O1          Zr13   2.435       .  S
O1            C3   1.286       .  A
O2          Zr39   2.423       .  S
O2            C3   1.286       .  A
C3         C1196   1.470       .  S
O4          Zr16   2.447       .  S
O4            C6   1.288       .  A
O5          Zr40   2.414   1_565  S
O5            C6   1.284       .  A
C6         C1070   1.470       .  S
O7          Zr16   2.430       .  S
O7            C9   1.286       .  A
O8          Zr39   2.412   1_565  S
O8            C9   1.284       .  A
C9         C1091   1.463       .  S
O10         Zr13   2.436       .  S
O10          C12   1.286       .  A
O11         Zr40   2.412       .  S
O11          C12   1.284       .  A
C12        C1181   1.463       .  S
Zr13         O14   2.435       .  S
Zr13         O15   2.436       .  S
Zr13         O19   2.369       .  S
Zr13         O20   2.372       .  S
Zr13         O43   2.372       .  S
Zr13         O45   2.374       .  S
O14          H57   0.990       .  S
O15          H56   0.990       .  S
O15          H60   0.990       .  S
Zr16         O17   2.438       .  S
Zr16         O18   2.433       .  S
Zr16         O20   2.362   1_565  S
Zr16         O19   2.372   1_565  S
Zr16         O44   2.373       .  S
Zr16         O46   2.372       .  S
O17          H58   0.990       .  S
O17          H61   0.990       .  S
O18          H51   0.990       .  S
O19         Zr39   2.378       .  S
O20         Zr40   2.383       .  S
O20          H47   0.965       .  S
O21         Zr33   2.446       .  S
O21          C23   1.289       .  A
O22         Zr40   2.411       .  S
O22          C23   1.283       .  A
C23        C1145   1.470       .  S
O24         Zr36   2.458       .  S
O24          C26   1.291       .  A
O25         Zr39   2.427   1_565  S
O25          C26   1.286       .  A
C26        C1124   1.481       .  S
O27         Zr36   2.456       .  S
O27          C29   1.291       .  A
O28         Zr40   2.427   1_565  S
O28          C29   1.286       .  A
C29        C1106   1.479       .  S
O30         Zr33   2.447       .  S
O30          C32   1.288       .  A
O31         Zr39   2.420       .  S
O31          C32   1.285       .  A
C32        C1160   1.472       .  S
Zr33         O34   2.435       .  S
Zr33         O35   2.435       .  S
Zr33         O41   2.370       .  S
Zr33         O42   2.374       .  S
Zr33         O45   2.373       .  S
Zr33         O43   2.371       .  S
O34          H54   0.990       .  S
O34          H59   0.990       .  S
O35          H55   0.990       .  S
Zr36         O37   2.433       .  S
Zr36         O38   2.436       .  S
Zr36         O42   2.372   1_565  S
Zr36         O41   2.372   1_565  S
Zr36         O46   2.378       .  S
Zr36         O44   2.372       .  S
O37          H53   0.990       .  S
O38          H52   0.990       .  S
O38          H62   0.990       .  S
Zr39         O42   2.379       .  S
Zr39         O44   2.384   1_545  S
Zr39         O45   2.390       .  S
Zr40         O41   2.382       .  S
Zr40         O43   2.386       .  S
Zr40         O46   2.382   1_545  S
O41          H49   0.966       .  S
O44          H48   0.966       .  S
O45          H50   0.966       .  S
O63         Zr75   2.436       .  S
O63          C65   1.286       .  A
O64        Zr101   2.419       .  S
O64          C65   1.285       .  A
C65        C1052   1.468       .  S
O66         Zr78   2.451       .  S
O66          C68   1.289       .  A
O67        Zr102   2.411   1_655  S
O67          C68   1.283       .  A
C68         C926   1.468       .  S
O69         Zr78   2.440       .  S
O69          C71   1.288       .  A
O70        Zr101   2.419   1_655  S
O70          C71   1.284       .  A
C71         C944   1.470       .  S
O72         Zr75   2.448       .  S
O72          C74   1.289       .  A
O73        Zr102   2.423       .  S
O73          C74   1.286       .  A
C74        C1037   1.474       .  S
Zr75         O76   2.434       .  S
Zr75         O77   2.435       .  S
Zr75         O81   2.369       .  S
Zr75         O82   2.366       .  S
Zr75        O105   2.372       .  S
Zr75        O107   2.376       .  S
O76         H119   0.990       .  S
O77         H118   0.990       .  S
O77         H122   0.990       .  S
Zr78         O79   2.437       .  S
Zr78         O80   2.435       .  S
Zr78         O82   2.370   1_655  S
Zr78         O81   2.369   1_655  S
Zr78        O106   2.371       .  S
Zr78        O108   2.370       .  S
O79         H120   0.990       .  S
O79         H123   0.990       .  S
O80         H113   0.990       .  S
O81        Zr101   2.378       .  S
O82        Zr102   2.383       .  S
O82         H109   0.965       .  S
O83         Zr95   2.448       .  S
O83          C85   1.289       .  A
O84        Zr102   2.413       .  S
O84          C85   1.284       .  A
C85        C1001   1.469       .  S
O86         Zr98   2.442       .  S
O86          C88   1.289       .  A
O87        Zr101   2.413   1_655  S
O87          C88   1.283       .  A
C88         C980   1.468       .  S
O89         Zr98   2.456       .  S
O89          C91   1.291       .  A
O90        Zr102   2.417   1_655  S
O90          C91   1.285       .  A
C91         C962   1.475       .  S
O92         Zr95   2.448       .  S
O92          C94   1.289       .  A
O93        Zr101   2.425       .  S
O93          C94   1.286       .  A
C94        C1019   1.477       .  S
Zr95         O96   2.435       .  S
Zr95         O97   2.435       .  S
Zr95        O103   2.374   1_455  S
Zr95        O104   2.372       .  S
Zr95        O107   2.375       .  S
Zr95        O105   2.376       .  S
O96         H116   0.990       .  S
O96         H121   0.990       .  S
O97         H117   0.989       .  S
Zr98         O99   2.434       .  S
Zr98        O100   2.436       .  S
Zr98        O104   2.376   1_655  S
Zr98        O103   2.370       .  S
Zr98        O108   2.371       .  S
Zr98        O106   2.374       .  S
O99         H115   0.990       .  S
O100        H114   0.990       .  S
O100        H124   0.990       .  S
Zr101       O104   2.381       .  S
Zr101       O106   2.389   1_455  S
Zr101       O107   2.388       .  S
Zr102       O103   2.386   1_455  S
Zr102       O105   2.384       .  S
Zr102       O108   2.382   1_455  S
O103        H111   0.966       .  S
O106        H110   0.966       .  S
O107        H112   0.966       .  S
O125       Zr137   2.448       .  S
O125        C127   1.289       .  A
O126       Zr163   2.423       .  S
O126        C127   1.285       .  A
C127        C908   1.476       .  S
O128       Zr140   2.449       .  S
O128        C130   1.289       .  A
O129       Zr164   2.417       .  S
O129        C130   1.284       .  A
C130        C782   1.472       .  S
O131       Zr140   2.443       .  S
O131        C133   1.288       .  A
O132       Zr163   2.422       .  S
O132        C133   1.286       .  A
C133        C803   1.472       .  S
O134       Zr137   2.427       .  S
O134        C136   1.285       .  A
O135       Zr164   2.419       .  S
O135        C136   1.285       .  A
C136        C890   1.464       .  S
Zr137       O138   2.433       .  S
Zr137       O139   2.433       .  S
Zr137       O143   2.364       .  S
Zr137       O144   2.378       .  S
Zr137       O167   2.373       .  S
Zr137       O169   2.365       .  S
O138        H181   0.990       .  S
O139        H180   0.990       .  S
O139        H184   0.990       .  S
Zr140       O141   2.436       .  S
Zr140       O142   2.435       .  S
Zr140       O144   2.373       .  S
Zr140       O143   2.373       .  S
Zr140       O168   2.371       .  S
Zr140       O170   2.371       .  S
O141        H182   0.990       .  S
O141        H185   0.990       .  S
O142        H175   0.990       .  S
O143       Zr163   2.376       .  S
O144       Zr164   2.390       .  S
O144        H171   0.966       .  S
O145       Zr157   2.435       .  S
O145        C147   1.286       .  A
O146       Zr164   2.428       .  S
O146        C147   1.286       .  A
C147        C854   1.472       .  S
O148       Zr160   2.447       .  S
O148        C150   1.289       .  A
O149       Zr163   2.412       .  S
O149        C150   1.284       .  A
C150        C836   1.469       .  S
O151       Zr160   2.448       .  S
O151        C153   1.289       .  A
O152       Zr164   2.423       .  S
O152        C153   1.286       .  A
C153        C818   1.473       .  S
O154       Zr157   2.424       .  S
O154        C156   1.285       .  A
O155       Zr163   2.418       .  S
O155        C156   1.285       .  A
C156        C875   1.462       .  S
Zr157       O158   2.440       .  S
Zr157       O159   2.434       .  S
Zr157       O165   2.363       .  S
Zr157       O166   2.371       .  S
Zr157       O169   2.376       .  S
Zr157       O167   2.368       .  S
O158        H178   0.990       .  S
O158        H183   0.990       .  S
O159        H179   0.990       .  S
Zr160       O161   2.434       .  S
Zr160       O162   2.433       .  S
Zr160       O166   2.370       .  S
Zr160       O165   2.374       .  S
Zr160       O170   2.370       .  S
Zr160       O168   2.373       .  S
O161        H177   0.990       .  S
O162        H176   0.990       .  S
O162        H186   0.990       .  S
Zr163       O166   2.383       .  S
Zr163       O168   2.387       .  S
Zr163       O169   2.383       .  S
Zr164       O165   2.381       .  S
Zr164       O167   2.381       .  S
Zr164       O170   2.383       .  S
O165        H173   0.965       .  S
O168        H172   0.966       .  S
O169        H174   0.966       .  S
O187       Zr199   2.435   1_554  S
O187        C189   1.287       .  A
O188       Zr225   2.452       .  S
O188        C189   1.289       .  A
C189        C749   1.477       .  S
O190       Zr202   2.439       .  S
O190        C192   1.287       .  A
O191       Zr226   2.419       .  S
O191        C192   1.285       .  A
C192        C839   1.468       .  S
O193       Zr202   2.438       .  S
O193        C195   1.287       .  A
O194       Zr225   2.419   1_556  S
O194        C195   1.285       .  A
C195        C947   1.469       .  S
O196       Zr199   2.437       .  S
O196        C198   1.288       .  A
O197       Zr226   2.440       .  S
O197        C198   1.287       .  A
C198        C764   1.472       .  S
Zr199       O200   2.434       .  S
Zr199       O201   2.436   1_556  S
Zr199       O205   2.372       .  S
Zr199       O206   2.366       .  S
Zr199       O229   2.369   1_556  S
Zr199       O231   2.357   1_556  S
O200        H243   0.990       .  S
O201        H242   0.990       .  S
O201        H246   0.990       .  S
Zr202       O203   2.438       .  S
Zr202       O204   2.434       .  S
Zr202       O206   2.370       .  S
Zr202       O205   2.375       .  S
Zr202       O230   2.364       .  S
Zr202       O232   2.372       .  S
O203        H244   0.990       .  S
O203        H247   0.990       .  S
O204        H237   0.990       .  S
O205       Zr225   2.375   1_556  S
O206       Zr226   2.384       .  S
O206        H233   0.966       .  S
O207       Zr219   2.430       .  S
O207        C209   1.285       .  A
O208       Zr226   2.433   1_554  S
O208        C209   1.287       .  A
C209        C821   1.472       .  S
O210       Zr222   2.493       .  S
O210        C212   1.297       .  A
O211       Zr225   2.417       .  S
O211        C212   1.287       .  A
C212        C713   1.493       .  S
O213       Zr222   2.490       .  S
O213        C215   1.296       .  A
O214       Zr226   2.412       .  S
O214        C215   1.286   1_556  A
C215        C728   1.488       .  S
O216       Zr219   2.434       .  S
O216        C218   1.287       .  A
O217       Zr225   2.415       .  S
O217        C218   1.285       .  A
C218        C929   1.463       .  S
Zr219       O220   2.435       .  S
Zr219       O221   2.435       .  S
Zr219       O227   2.363       .  S
Zr219       O228   2.371       .  S
Zr219       O231   2.364       .  S
Zr219       O229   2.375       .  S
O220        H240   0.990       .  S
O220        H245   0.990       .  S
O221        H241   0.990       .  S
Zr222       O223   2.434       .  S
Zr222       O224   2.434   1_554  S
Zr222       O228   2.386       .  S
Zr222       O227   2.385       .  S
Zr222       O232   2.384   1_554  S
Zr222       O230   2.387   1_554  S
O223        H239   0.990       .  S
O224        H238   0.990       .  S
O224        H248   0.990       .  S
Zr225       O228   2.392       .  S
Zr225       O230   2.389   1_554  S
Zr225       O231   2.377       .  S
Zr226       O227   2.389   1_556  S
Zr226       O229   2.372   1_556  S
Zr226       O232   2.390       .  S
O227        H235   0.966       .  S
O230        H234   0.966       .  S
O231        H236   0.965       .  S
O249       Zr261   2.419       .  S
O249        C251   1.283       .  A
O250       Zr287   2.453       .  S
O250        C251   1.289   1_556  A
C251        C692   1.476       .  S
O252       Zr264   2.440       .  S
O252        C254   1.287       .  A
O253       Zr288   2.414       .  S
O253        C254   1.284       .  A
C254        C983   1.466       .  S
O255       Zr264   2.434       .  S
O255        C257   1.287       .  A
O256       Zr287   2.426       .  S
O256        C257   1.286       .  A
C257       C1163   1.470       .  S
O258       Zr261   2.429       .  S
O258        C260   1.285       .  A
O259       Zr288   2.438   1_554  S
O259        C260   1.287       .  A
C260        C746   1.472       .  S
Zr261       O262   2.436   1_554  S
Zr261       O263   2.438       .  S
Zr261       O267   2.365   1_554  S
Zr261       O268   2.356   1_554  S
Zr261       O291   2.363       .  S
Zr261       O293   2.365       .  S
O262        H305   0.990       .  S
O263        H304   0.990       .  S
O263        H308   0.990       .  S
Zr264       O265   2.436       .  S
Zr264       O266   2.435       .  S
Zr264       O268   2.373       .  S
Zr264       O267   2.376       .  S
Zr264       O292   2.371       .  S
Zr264       O294   2.367       .  S
O265        H306   0.990       .  S
O265        H309   0.990       .  S
O266        H299   0.990       .  S
O267       Zr287   2.382       .  S
O268       Zr288   2.378       .  S
O268        H295   0.966       .  S
O269       Zr281   2.433       .  S
O269        C271   1.286       .  A
O270       Zr288   2.425   1_554  S
O270        C271   1.285       .  A
C271        C965   1.472       .  S
O272       Zr284   2.483       .  S
O272        C274   1.295       .  A
O273       Zr287   2.409       .  S
O273        C274   1.285       .  A
C274        C656   1.484       .  S
O275       Zr284   2.491       .  S
O275        C277   1.296       .  A
O276       Zr288   2.404       .  S
O276        C277   1.285       .  A
C277        C677   1.485       .  S
O278       Zr281   2.432       .  S
O278        C280   1.285       .  A
O279       Zr287   2.438   1_554  S
O279        C280   1.288       .  A
C280       C1142   1.473       .  S
Zr281       O282   2.434       .  S
Zr281       O283   2.435       .  S
Zr281       O289   2.368       .  S
Zr281       O290   2.365       .  S
Zr281       O293   2.374       .  S
Zr281       O291   2.369       .  S
O282        H302   0.990       .  S
O282        H307   0.990       .  S
O283        H303   0.990       .  S
Zr284       O285   2.434   1_556  S
Zr284       O286   2.438       .  S
Zr284       O290   2.389   1_556  S
Zr284       O289   2.390   1_556  S
Zr284       O294   2.382       .  S
Zr284       O292   2.386       .  S
O285        H301   0.990       .  S
O286        H300   0.990       .  S
O286        H310   0.990       .  S
Zr287       O290   2.393   1_556  S
Zr287       O292   2.398       .  S
Zr287       O293   2.383   1_556  S
Zr288       O289   2.397   1_556  S
Zr288       O291   2.374   1_556  S
Zr288       O294   2.389       .  S
O289        H297   0.966       .  S
O292        H296   0.966       .  S
O293        H298   0.966       .  S
O311       Zr323   2.430       .  S
O311        C313   1.285       .  A
O312       Zr349   2.448       .  S
O312        C313   1.288       .  A
C313        C638   1.476       .  S
O314       Zr326   2.432       .  S
O314        C316   1.285       .  A
O315       Zr350   2.428       .  S
O315        C316   1.287       .  A
C316       C1055   1.468       .  S
O317       Zr326   2.426       .  S
O317        C319   1.285       .  A
O318       Zr349   2.426       .  S
O318        C319   1.286       .  A
C319       C1088   1.466       .  S
O320       Zr323   2.426       .  S
O320        C322   1.285       .  A
O321       Zr350   2.452       .  S
O321        C322   1.289       .  A
C322        C623   1.476       .  S
Zr323       O324   2.435       .  S
Zr323       O325   2.434   1_556  S
Zr323       O329   2.367       .  S
Zr323       O330   2.365       .  S
Zr323       O353   2.367   1_556  S
Zr323       O355   2.359   1_556  S
O324        H367   0.990       .  S
O325        H366   0.990       .  S
O325        H370   0.990       .  S
Zr326       O327   2.439       .  S
Zr326       O328   2.435       .  S
Zr326       O330   2.369       .  S
Zr326       O329   2.372       .  S
Zr326       O354   2.369       .  S
Zr326       O356   2.368       .  S
O327        H368   0.990       .  S
O327        H371   0.990       .  S
O328        H361   0.990       .  S
O329       Zr349   2.373       .  S
O330       Zr350   2.384       .  S
O330        H357   0.965       .  S
O331       Zr343   2.425       .  S
O331        C333   1.285       .  A
O332       Zr350   2.446   1_554  S
O332        C333   1.290       .  A
C333       C1034   1.476       .  S
O334       Zr346   2.491   1_554  S
O334        C336   1.296       .  A
O335       Zr349   2.410   1_554  S
O335        C336   1.286       .  A
C336        C602   1.488       .  S
O337       Zr346   2.500       .  S
O337        C339   1.297       .  A
O338       Zr350   2.412       .  S
O338        C339   1.287       .  A
C339        C710   1.495       .  S
O340       Zr343   2.432       .  S
O340        C342   1.286       .  A
O341       Zr349   2.427   1_554  S
O341        C342   1.286       .  A
C342       C1073   1.469       .  S
Zr343       O344   2.436       .  S
Zr343       O345   2.436       .  S
Zr343       O351   2.372       .  S
Zr343       O352   2.361       .  S
Zr343       O355   2.374       .  S
Zr343       O353   2.377       .  S
O344        H364   0.990       .  S
O344        H369   0.990       .  S
O345        H365   0.990       .  S
Zr346       O347   2.435   1_556  S
Zr346       O348   2.435       .  S
Zr346       O352   2.383   1_556  S
Zr346       O351   2.385   1_556  S
Zr346       O356   2.382       .  S
Zr346       O354   2.393       .  S
O347        H363   0.990       .  S
O348        H362   0.990       .  S
O348        H372   0.990       .  S
Zr349       O352   2.383   1_556  S
Zr349       O354   2.400       .  S
Zr349       O355   2.379   1_556  S
Zr350       O351   2.393   1_556  S
Zr350       O353   2.376   1_556  S
Zr350       O356   2.393       .  S
O351        H359   0.966       .  S
O354        H358   0.966       .  S
O355        H360   0.966       .  S
O373       Zr385   2.438       .  S
O373        C375   1.287       .  A
O374       Zr411   2.432       .  S
O374        C375   1.287       .  A
C375       C1127   1.475       .  S
O376       Zr388   2.441       .  S
O376        C378   1.287       .  A
O377       Zr412   2.442       .  S
O377        C378   1.287       .  A
C378        C584   1.476       .  S
O379       Zr388   2.435       .  S
O379        C381   1.287       .  A
O380       Zr411   2.440       .  S
O380        C381   1.288       .  A
C381        C641   1.474       .  S
O382       Zr385   2.429       .  S
O382        C384   1.285       .  A
O383       Zr412   2.428       .  S
O383        C384   1.287       .  A
C384        C872   1.466       .  S
Zr385       O386   2.435       .  S
Zr385       O387   2.434       .  S
Zr385       O391   2.367       .  S
Zr385       O392   2.373       .  S
Zr385       O415   2.370       .  S
Zr385       O417   2.368       .  S
O386        H429   0.991       .  S
O387        H428   0.990       .  S
O387        H432   0.990       .  S
Zr388       O389   2.437       .  S
Zr388       O390   2.434   1_556  S
Zr388       O392   2.360       .  S
Zr388       O391   2.365       .  S
Zr388       O416   2.369   1_556  S
Zr388       O418   2.369   1_556  S
O389        H430   0.990       .  S
O389        H433   0.990       .  S
O390        H423   0.990       .  S
O391       Zr411   2.370       .  S
O392       Zr412   2.377       .  S
O392        H419   0.965       .  S
O393       Zr405   2.505       .  S
O393        C395   1.299       .  A
O394       Zr412   2.391   1_554  S
O394        C395   1.282       .  A
C395        C731   1.490       .  S
O396       Zr408   2.444       .  S
O396        C398   1.288       .  A
O397       Zr411   2.430   1_554  S
O397        C398   1.286       .  A
C398       C1109   1.477       .  S
O399       Zr408   2.434       .  S
O399        C401   1.286       .  A
O400       Zr412   2.430   1_554  S
O400        C401   1.287       .  A
C401        C857   1.472       .  S
O402       Zr405   2.496       .  S
O402        C404   1.297       .  A
O403       Zr411   2.400   1_554  S
O403        C404   1.284       .  A
C404        C659   1.487       .  S
Zr405       O406   2.437       .  S
Zr405       O407   2.434   1_554  S
Zr405       O413   2.385       .  S
Zr405       O414   2.388       .  S
Zr405       O417   2.392   1_554  S
Zr405       O415   2.385   1_554  S
O406        H426   0.990       .  S
O406        H431   0.990       .  S
O407        H427   0.990       .  S
Zr408       O409   2.435       .  S
Zr408       O410   2.436       .  S
Zr408       O414   2.366       .  S
Zr408       O413   2.371       .  S
Zr408       O418   2.379       .  S
Zr408       O416   2.372       .  S
O409        H425   0.990       .  S
O410        H424   0.990       .  S
O410        H434   0.990       .  S
Zr411       O414   2.388   1_556  S
Zr411       O416   2.377   1_556  S
Zr411       O417   2.396       .  S
Zr412       O413   2.390   1_556  S
Zr412       O415   2.392       .  S
Zr412       O418   2.373   1_556  S
O413        H421   0.966       .  S
O416        H420   0.965       .  S
O417        H422   0.966       .  S
O435       Zr447   2.434   1_556  S
O435        C437   1.286       .  A
O436       Zr473   2.445   1_556  S
O436        C437   1.288       .  A
C437        C620   1.476       .  S
O438       Zr450   2.441       .  S
O438        C440   1.287       .  A
O439       Zr474   2.431   1_556  S
O439        C440   1.287       .  A
C440        C911   1.474       .  S
O441       Zr450   2.447       .  S
O441        C443   1.289       .  A
O442       Zr473   2.431   1_556  S
O442        C443   1.287       .  A
C443       C1016   1.478       .  S
O444       Zr447   2.437   1_556  S
O444        C446   1.286       .  A
O445       Zr474   2.442       .  S
O445        C446   1.287   1_554  A
C446        C587   1.473       .  S
Zr447       O448   2.434   1_554  S
Zr447       O449   2.435       .  S
Zr447       O453   2.370   1_554  S
Zr447       O454   2.366   1_554  S
Zr447       O477   2.362       .  S
Zr447       O479   2.364       .  S
O448        H491   0.990       .  S
O449        H490   0.990       .  S
O449        H494   0.990       .  S
Zr450       O451   2.438       .  S
Zr450       O452   2.433       .  S
Zr450       O454   2.369       .  S
Zr450       O453   2.370       .  S
Zr450       O478   2.365       .  S
Zr450       O480   2.371       .  S
O451        H492   0.990       .  S
O451        H495   0.990       .  S
O452        H485   0.990       .  S
O453       Zr473   2.376   1_556  S
O454       Zr474   2.380   1_556  S
O454        H481   0.965       .  S
O455       Zr467   2.431       .  S
O455        C457   1.286       .  A
O456       Zr474   2.422       .  S
O456        C457   1.286       .  A
C457        C893   1.466       .  S
O458       Zr470   2.478       .  S
O458        C460   1.294       .  A
O459       Zr473   2.423       .  S
O459        C460   1.288       .  A
C460        C674   1.484       .  S
O461       Zr470   2.493       .  S
O461        C463   1.296       .  A
O462       Zr474   2.407       .  S
O462        C463   1.285       .  A
C463        C569   1.486       .  S
O464       Zr467   2.435       .  S
O464        C466   1.287       .  A
O465       Zr473   2.424       .  S
O465        C466   1.285       .  A
C466        C998   1.469       .  S
Zr467       O468   2.437       .  S
Zr467       O469   2.433       .  S
Zr467       O475   2.367       .  S
Zr467       O476   2.364       .  S
Zr467       O479   2.373       .  S
Zr467       O477   2.380       .  S
O468        H488   0.990       .  S
O468        H493   0.990       .  S
O469        H489   0.990       .  S
Zr470       O471   2.434       .  S
Zr470       O472   2.436   1_554  S
Zr470       O476   2.384       .  S
Zr470       O475   2.378       .  S
Zr470       O480   2.384   1_554  S
Zr470       O478   2.393   1_554  S
O471        H487   0.990       .  S
O472        H486   0.990       .  S
O472        H496   0.990       .  S
Zr473       O476   2.386       .  S
Zr473       O478   2.394   1_554  S
Zr473       O479   2.382       .  S
Zr474       O475   2.392       .  S
Zr474       O477   2.379       .  S
Zr474       O480   2.388   1_554  S
O475        H483   0.966       .  S
O478        H482   0.966       .  S
O479        H484   0.966       .  S
O497       Zr509   2.424       .  S
O497        C499   1.284       .  A
O498       Zr535   2.447       .  S
O498        C499   1.290       .  A
C499       C1199   1.475       .  S
O500       Zr512   2.431       .  S
O500        C502   1.286       .  A
O501       Zr536   2.442   1_556  S
O501        C502   1.287       .  A
C502        C767   1.471       .  S
O503       Zr512   2.420       .  S
O503        C505   1.285   1_556  A
O504       Zr535   2.453   1_554  S
O504        C505   1.289       .  A
C505        C695   1.475       .  S
O506       Zr509   2.436       .  S
O506        C508   1.287       .  A
O507       Zr536   2.428   1_556  S
O507        C508   1.287       .  A
C508        C800   1.470       .  S
Zr509       O510   2.434       .  S
Zr509       O511   2.436       .  S
Zr509       O515   2.377       .  S
Zr509       O516   2.366       .  S
Zr509       O539   2.372       .  S
Zr509       O541   2.368       .  S
O510        H553   0.990       .  S
O511        H552   0.990       .  S
O511        H556   0.990       .  S
Zr512       O513   2.437       .  S
Zr512       O514   2.433   1_556  S
Zr512       O516   2.355       .  S
Zr512       O515   2.369       .  S
Zr512       O540   2.364   1_556  S
Zr512       O542   2.369   1_556  S
O513        H554   0.990       .  S
O513        H557   0.990       .  S
O514        H547   0.989       .  S
O515       Zr535   2.381       .  S
O516       Zr536   2.380   1_556  S
O516        H543   0.966       .  S
O517       Zr529   2.490       .  S
O517        C519   1.296       .  A
O518       Zr536   2.408       .  S
O518        C519   1.285       .  A
C519        C566   1.483       .  S
O520       Zr532   2.419       .  S
O520        C522   1.284       .  A
O521       Zr535   2.439   1_554  S
O521        C522   1.289       .  A
C522       C1178   1.469       .  S
O523       Zr532   2.431       .  S
O523        C525   1.285       .  A
O524       Zr536   2.433       .  S
O524        C525   1.287       .  A
C525        C785   1.473       .  S
O526       Zr529   2.481       .  S
O526        C528   1.295       .  A
O527       Zr535   2.420   1_554  S
O527        C528   1.287       .  A
C528        C605   1.485       .  S
Zr529       O530   2.436       .  S
Zr529       O531   2.433   1_554  S
Zr529       O537   2.385       .  S
Zr529       O538   2.383       .  S
Zr529       O541   2.384   1_554  S
Zr529       O539   2.384   1_554  S
O530        H550   0.990       .  S
O530        H555   0.990       .  S
O531        H551   0.990       .  S
Zr532       O533   2.434       .  S
Zr532       O534   2.440       .  S
Zr532       O538   2.368       .  S
Zr532       O537   2.359       .  S
Zr532       O542   2.372       .  S
Zr532       O540   2.368       .  S
O533        H549   0.990       .  S
O534        H548   0.989       .  S
O534        H558   0.990       .  S
Zr535       O538   2.393   1_556  S
Zr535       O540   2.383   1_556  S
Zr535       O541   2.394       .  S
Zr536       O537   2.391       .  S
Zr536       O539   2.397   1_554  S
Zr536       O542   2.379       .  S
O537        H545   0.966       .  S
O540        H544   0.966       .  S
O541        H546   0.966       .  S
C559        C564   1.384       .  A
C559        C560   1.398       .  A
C559        N565   1.339       .  A
C560        C561   1.397       .  A
C560        H571   1.083       .  S
C561        C570   1.369       .  A
C561        C562   1.383       .  A
C562        C563   1.416   1_554  A
C562        N568   1.357       .  A
C563        C564   1.416   1_556  A
C563        H572   1.082       .  S
C564        C567   1.395   1_554  A
N565        C566   1.355       .  A
N565        H575   1.045       .  S
C566        C567   1.403   1_554  A
C567        H573   1.082       .  S
N568        C569   1.362       .  A
N568        H576   1.044   1_554  S
C569        C570   1.394       .  A
C570        H574   1.083       .  S
C577        C582   1.384       .  A
C577        C578   1.414   1_556  A
C577        N583   1.353   1_556  A
C578        C579   1.414   1_554  A
C578        H589   1.082       .  S
C579        C588   1.392   1_556  A
C579        C580   1.385       .  A
C580        C581   1.396       .  A
C580        N586   1.337       .  A
C581        C582   1.395       .  A
C581        H590   1.083       .  S
C582        C585   1.370       .  A
N583        C584   1.361   1_554  A
N583        H593   1.044       .  S
C584        C585   1.391       .  A
C585        H591   1.083       .  S
N586        C587   1.352       .  A
N586        H594   1.045       .  S
C587        C588   1.402   1_556  A
C588        H592   1.082       .  S
C595        C600   1.383       .  A
C595        C596   1.417       .  A
C595        N601   1.358       .  A
C596        C597   1.418   1_565  A
C596        H607   1.082   1_554  S
C597        C606   1.395       .  A
C597        C598   1.384       .  A
C598        C599   1.397       .  A
C598        N604   1.339       .  A
C599        C600   1.396   1_545  A
C599        H608   1.083       .  S
C600        C603   1.367       .  A
N601        C602   1.363       .  A
N601        H611   1.044   1_554  S
C602        C603   1.394       .  A
C603        H609   1.083       .  S
N604        C605   1.354       .  A
N604        H612   1.045       .  S
C605        C606   1.405       .  A
C606        H610   1.082   1_554  S
C613        C618   1.385       .  A
C613        C614   1.397       .  A
C613        N619   1.339       .  A
C614        C615   1.396       .  A
C614        H625   1.083       .  S
C615        C624   1.368       .  A
C615        C616   1.385       .  A
C616        C617   1.412       .  A
C616        N622   1.353       .  A
C617        C618   1.412       .  A
C617        H626   1.082   1_556  S
C618        C621   1.389   1_556  A
N619        C620   1.353       .  A
N619        H629   1.045       .  S
C620        C621   1.400   1_556  A
C621        H627   1.082       .  S
N622        C623   1.359       .  A
N622        H630   1.044   1_556  S
C623        C624   1.392       .  A
C624        H628   1.083       .  S
C631        C636   1.384       .  A
C631        C632   1.414   1_556  A
C631        N637   1.353   1_556  A
C632        C633   1.414   1_554  A
C632        H643   1.082       .  S
C633        C642   1.390   1_556  A
C633        C634   1.385       .  A
C634        C635   1.397       .  A
C634        N640   1.339       .  A
C635        C636   1.396       .  A
C635        H644   1.083       .  S
C636        C639   1.369       .  A
N637        C638   1.361   1_554  A
N637        H647   1.045       .  S
C638        C639   1.391       .  A
C639        H645   1.083       .  S
N640        C641   1.352       .  A
N640        H648   1.045       .  S
C641        C642   1.401   1_556  A
C642        H646   1.082       .  S
C649        C654   1.383   1_554  A
C649        C650   1.394       .  A
C649        N655   1.335       .  A
C650        C651   1.393   1_545  A
C650        H661   1.083       .  S
C651        C660   1.365       .  A
C651        C652   1.382       .  A
C652        C653   1.419   1_554  A
C652        N658   1.358   1_554  A
C653        C654   1.419   1_565  A
C653        H662   1.082       .  S
C654        C657   1.397       .  A
N655        C656   1.353   1_554  A
N655        H665   1.045       .  S
C656        C657   1.406       .  A
C657        H663   1.082       .  S
N658        C659   1.364   1_556  A
N658        H666   1.044       .  S
C659        C660   1.393       .  A
C660        H664   1.083       .  S
C667        C672   1.384   1_556  A
C667        C668   1.396       .  A
C667        N673   1.337       .  A
C668        C669   1.395   1_455  A
C668        H679   1.083       .  S
C669        C678   1.367       .  A
C669        C670   1.383       .  A
C670        C671   1.418   1_656  A
C670        N676   1.357   1_556  A
C671        C672   1.418       .  A
C671        H680   1.082   1_455  S
C672        C675   1.396       .  A
N673        C674   1.353   1_556  A
N673        H683   1.045       .  S
C674        C675   1.406       .  A
C675        H681   1.082       .  S
N676        C677   1.363   1_554  A
N676        H684   1.044       .  S
C677        C678   1.393       .  A
C678        H682   1.083       .  S
C685        C690   1.384       .  A
C685        C686   1.393       .  A
C685        N691   1.333       .  A
C686        C687   1.391       .  A
C686        H697   1.083       .  S
C687        C696   1.364       .  A
C687        C688   1.384       .  A
C688        C689   1.415   1_554  A
C688        N694   1.354   1_554  A
C689        C690   1.415   1_556  A
C689        H698   1.082       .  S
C690        C693   1.395   1_554  A
N691        C692   1.353       .  A
N691        H701   1.045       .  S
C692        C693   1.403   1_554  A
C693        H699   1.082       .  S
N694        C695   1.361   1_556  A
N694        H702   1.044       .  S
C695        C696   1.391       .  A
C696        H700   1.083       .  S
C703        C708   1.381       .  A
C703        C704   1.423       .  A
C703        N709   1.361       .  A
C704        C705   1.423   1_455  A
C704        H715   1.082       .  S
C705        C714   1.402   1_556  A
C705        C706   1.383   1_556  A
C706        C707   1.395   1_655  A
C706        N712   1.336       .  A
C707        C708   1.393   1_554  A
C707        H716   1.083   1_455  S
C708        C711   1.366       .  A
N709        C710   1.367       .  A
N709        H719   1.044       .  S
C710        C711   1.393       .  A
C711        H717   1.083       .  S
N712        C713   1.354       .  A
N712        H720   1.045       .  S
C713        C714   1.409       .  A
C714        H718   1.082   1_554  S
C721        C726   1.383   1_556  A
C721        C722   1.395       .  A
C721        N727   1.337       .  A
C722        C723   1.394       .  A
C722        H733   1.083       .  S
C723        C732   1.365       .  A
C723        C724   1.382   1_556  A
C724        C725   1.419       .  A
C724        N730   1.359       .  A
C725        C726   1.420       .  A
C725        H734   1.082       .  S
C726        C729   1.397       .  A
N727        C728   1.354   1_556  A
N727        H737   1.045       .  S
C728        C729   1.406       .  A
C729        H735   1.082       .  S
N730        C731   1.363       .  A
N730        H738   1.044       .  S
C731        C732   1.395   1_554  A
C732        H736   1.083       .  S
C739        C744   1.385       .  A
C739        C740   1.396       .  A
C739        N745   1.338       .  A
C740        C741   1.396       .  A
C740        H751   1.083       .  S
C741        C750   1.368       .  A
C741        C742   1.384       .  A
C742        C743   1.413   1_554  A
C742        N748   1.354   1_554  A
C743        C744   1.413   1_556  A
C743        H752   1.082       .  S
C744        C747   1.389   1_554  A
N745        C746   1.352       .  A
N745        H755   1.045       .  S
C746        C747   1.400   1_554  A
C747        H753   1.082       .  S
N748        C749   1.360   1_556  A
N748        H756   1.044       .  S
C749        C750   1.391       .  A
C750        H754   1.083       .  S
C757        C762   1.384       .  A
C757        C758   1.413   1_556  A
C757        N763   1.351   1_556  A
C758        C759   1.412   1_554  A
C758        H769   1.082       .  S
C759        C768   1.391   1_556  A
C759        C760   1.385       .  A
C760        C761   1.396       .  A
C760        N766   1.336       .  A
C761        C762   1.394       .  A
C761        H770   1.083       .  S
C762        C765   1.370       .  A
N763        C764   1.359   1_554  A
N763        H773   1.045       .  S
C764        C765   1.390       .  A
C765        H771   1.083       .  S
N766        C767   1.351       .  A
N766        H774   1.045       .  S
C767        C768   1.401   1_556  A
C768        H772   1.082       .  S
C775        C780   1.384       .  A
C775        C776   1.406       .  A
C775        N781   1.344       .  A
C776        C777   1.405       .  A
C776        H787   1.082       .  S
C777        C786   1.383       .  A
C777        C778   1.384       .  A
C778        C779   1.401       .  A
C778        N784   1.340       .  A
C779        C780   1.399       .  A
C779        H788   1.082       .  S
C780        C783   1.376       .  A
N781        C782   1.357       .  A
N781        H791   1.045       .  S
C782        C783   1.394       .  A
C783        H789   1.083       .  S
N784        C785   1.356       .  A
N784        H792   1.045       .  S
C785        C786   1.397       .  A
C786        H790   1.082       .  S
C793        C798   1.384       .  A
C793        C794   1.405       .  A
C793        N799   1.345       .  A
C794        C795   1.404       .  A
C794        H805   1.082       .  S
C795        C804   1.380       .  A
C795        C796   1.385       .  A
C796        C797   1.401       .  A
C796        N802   1.341       .  A
C797        C798   1.400       .  A
C797        H806   1.082       .  S
C798        C801   1.375       .  A
N799        C800   1.357       .  A
N799        H809   1.045       .  S
C800        C801   1.394       .  A
C801        H807   1.083       .  S
N802        C803   1.355       .  A
N802        H810   1.045       .  S
C803        C804   1.397       .  A
C804        H808   1.082       .  S
C811        C816   1.384       .  A
C811        C812   1.406       .  A
C811        N817   1.345       .  A
C812        C813   1.405       .  A
C812        H823   1.082       .  S
C813        C822   1.381       .  A
C813        C814   1.384       .  A
C814        C815   1.402       .  A
C814        N820   1.341       .  A
C815        C816   1.400       .  A
C815        H824   1.082       .  S
C816        C819   1.376       .  A
N817        C818   1.357       .  A
N817        H827   1.045       .  S
C818        C819   1.395       .  A
C819        H825   1.082       .  S
N820        C821   1.356       .  A
N820        H828   1.045       .  S
C821        C822   1.396       .  A
C822        H826   1.082       .  S
C829        C834   1.385       .  A
C829        C830   1.399       .  A
C829        N835   1.340       .  A
C830        C831   1.398       .  A
C830        H841   1.082       .  S
C831        C840   1.372       .  A
C831        C832   1.384       .  A
C832        C833   1.405       .  A
C832        N838   1.344       .  A
C833        C834   1.405       .  A
C833        H842   1.082       .  S
C834        C837   1.379       .  A
N835        C836   1.353       .  A
N835        H845   1.045       .  S
C836        C837   1.398       .  A
C837        H843   1.083       .  S
N838        C839   1.357       .  A
N838        H846   1.045       .  S
C839        C840   1.393       .  A
C840        H844   1.083       .  S
C847        C852   1.384       .  A
C847        C848   1.405       .  A
C847        N853   1.345       .  A
C848        C849   1.404       .  A
C848        H859   1.082       .  S
C849        C858   1.380       .  A
C849        C850   1.385       .  A
C850        C851   1.401       .  A
C850        N856   1.341       .  A
C851        C852   1.400       .  A
C851        H860   1.083       .  S
C852        C855   1.374       .  A
N853        C854   1.357       .  A
N853        H863   1.045       .  S
C854        C855   1.395       .  A
C855        H861   1.083       .  S
N856        C857   1.355       .  A
N856        H864   1.045       .  S
C857        C858   1.397       .  A
C858        H862   1.082       .  S
C865        C870   1.385       .  A
C865        C866   1.400       .  A
C865        N871   1.339       .  A
C866        C867   1.398       .  A
C866        H877   1.083       .  S
C867        C876   1.373       .  A
C867        C868   1.385       .  A
C868        C869   1.401       .  A
C868        N874   1.341       .  A
C869        C870   1.401       .  A
C869        H878   1.082       .  S
C870        C873   1.377       .  A
N871        C872   1.355       .  A
N871        H881   1.045       .  S
C872        C873   1.395       .  A
C873        H879   1.082       .  S
N874        C875   1.354       .  A
N874        H882   1.045       .  S
C875        C876   1.394       .  A
C876        H880   1.083       .  S
C883        C888   1.385       .  A
C883        C884   1.402       .  A
C883        N889   1.342       .  A
C884        C885   1.402       .  A
C884        H895   1.082       .  S
C885        C894   1.377       .  A
C885        C886   1.385       .  A
C886        C887   1.400       .  A
C886        N892   1.339       .  A
C887        C888   1.398       .  A
C887        H896   1.083       .  S
C888        C891   1.372       .  A
N889        C890   1.355       .  A
N889        H899   1.045       .  S
C890        C891   1.394       .  A
C891        H897   1.083       .  S
N892        C893   1.355       .  A
N892        H900   1.045       .  S
C893        C894   1.395       .  A
C894        H898   1.082       .  S
C901        C906   1.384       .  A
C901        C902   1.407       .  A
C901        N907   1.346       .  A
C902        C903   1.406       .  A
C902        H913   1.082       .  S
C903        C912   1.384       .  A
C903        C904   1.384       .  A
C904        C905   1.402       .  A
C904        N910   1.340       .  A
C905        C906   1.400       .  A
C905        H914   1.082       .  S
C906        C909   1.376       .  A
N907        C908   1.358       .  A
N907        H917   1.045       .  S
C908        C909   1.395       .  A
C909        H915   1.082       .  S
N910        C911   1.355       .  A
N910        H918   1.045       .  S
C911        C912   1.398       .  A
C912        H916   1.082       .  S
C919        C924   1.385       .  A
C919        C920   1.404       .  A
C919        N925   1.343       .  A
C920        C921   1.403       .  A
C920        H931   1.082       .  S
C921        C930   1.378       .  A
C921        C922   1.385       .  A
C922        C923   1.398       .  A
C922        N928   1.338       .  A
C923        C924   1.397       .  A
C923        H932   1.082       .  S
C924        C927   1.373       .  A
N925        C926   1.357       .  A
N925        H935   1.045       .  S
C926        C927   1.392       .  A
C927        H933   1.082       .  S
N928        C929   1.353       .  A
N928        H936   1.045       .  S
C929        C930   1.396       .  A
C930        H934   1.083       .  S
C937        C942   1.384       .  A
C937        C938   1.405       .  A
C937        N943   1.346       .  A
C938        C939   1.405       .  A
C938        H949   1.082       .  S
C939        C948   1.379       .  A
C939        C940   1.385       .  A
C940        C941   1.399       .  A
C940        N946   1.340       .  A
C941        C942   1.398       .  A
C941        H950   1.083       .  S
C942        C945   1.371       .  A
N943        C944   1.358       .  A
N943        H953   1.045       .  S
C944        C945   1.393       .  A
C945        H951   1.083       .  S
N946        C947   1.354       .  A
N946        H954   1.045       .  S
C947        C948   1.397       .  A
C948        H952   1.082       .  S
C955        C960   1.385       .  A
C955        C956   1.400       .  A
C955        N961   1.343       .  A
C956        C957   1.400       .  A
C956        H967   1.082       .  S
C957        C966   1.372       .  A
C957        C958   1.384       .  A
C958        C959   1.406       .  A
C958        N964   1.347       .  A
C959        C960   1.407       .  A
C959        H968   1.082       .  S
C960        C963   1.379       .  A
N961        C962   1.355       .  A
N961        H971   1.045       .  S
C962        C963   1.399       .  A
C963        H969   1.082       .  S
N964        C965   1.357       .  A
N964        H972   1.045       .  S
C965        C966   1.394       .  A
C966        H970   1.083       .  S
C973        C978   1.384       .  A
C973        C974   1.406       .  A
C973        N979   1.344       .  A
C974        C975   1.405       .  A
C974        H985   1.082       .  S
C975        C984   1.381       .  A
C975        C976   1.385       .  A
C976        C977   1.397       .  A
C976        N982   1.337       .  A
C977        C978   1.395       .  A
C977        H986   1.082       .  S
C978        C981   1.371       .  A
N979        C980   1.358       .  A
N979        H989   1.045       .  S
C980        C981   1.391       .  A
C981        H987   1.083       .  S
N982        C983   1.352       .  A
N982        H990   1.045       .  S
C983        C984   1.397       .  A
C984        H988   1.083       .  S
C991        C996   1.385       .  A
C991        C992   1.406       .  A
C991        N997   1.346       .  A
C992        C993   1.405       .  A
C992       H1003   1.082       .  S
C993       C1002   1.380       .  A
C993        C994   1.385       .  A
C994        C995   1.398       .  A
C994       N1000   1.340       .  A
C995        C996   1.397       .  A
C995       H1004   1.082       .  S
C996        C999   1.371       .  A
N997        C998   1.357       .  A
N997       H1007   1.045       .  S
C998        C999   1.393       .  A
C999       H1005   1.083       .  S
N1000      C1001   1.353       .  A
N1000      H1008   1.045       .  S
C1001      C1002   1.398       .  A
C1002      H1006   1.082       .  S
C1009      C1014   1.384       .  A
C1009      C1010   1.403       .  A
C1009      N1015   1.343       .  A
C1010      C1011   1.402       .  A
C1010      H1021   1.082       .  S
C1011      C1020   1.378       .  A
C1011      C1012   1.384       .  A
C1012      C1013   1.407       .  A
C1012      N1018   1.346       .  A
C1013      C1014   1.406       .  A
C1013      H1022   1.082       .  S
C1014      C1017   1.382       .  A
N1015      C1016   1.356       .  A
N1015      H1025   1.045       .  S
C1016      C1017   1.398       .  A
C1017      H1023   1.082       .  S
N1018      C1019   1.358       .  A
N1018      H1026   1.045       .  S
C1019      C1020   1.396       .  A
C1020      H1024   1.082       .  S
C1027      C1032   1.384       .  A
C1027      C1028   1.406       .  A
C1027      N1033   1.347       .  A
C1028      C1029   1.406       .  A
C1028      H1039   1.082       .  S
C1029      C1038   1.381       .  A
C1029      C1030   1.384       .  A
C1030      C1031   1.401       .  A
C1030      N1036   1.342       .  A
C1031      C1032   1.401       .  A
C1031      H1040   1.083       .  S
C1032      C1035   1.374       .  A
N1033      C1034   1.357       .  A
N1033      H1043   1.045       .  S
C1034      C1035   1.397       .  A
C1035      H1041   1.083       .  S
N1036      C1037   1.355       .  A
N1036      H1044   1.045       .  S
C1037      C1038   1.398       .  A
C1038      H1042   1.082       .  S
C1045      C1050   1.385       .  A
C1045      C1046   1.402       .  A
C1045      N1051   1.343       .  A
C1046      C1047   1.401       .  A
C1046      H1057   1.082       .  S
C1047      C1056   1.377       .  A
C1047      C1048   1.385       .  A
C1048      C1049   1.402       .  A
C1048      N1054   1.341       .  A
C1049      C1050   1.400       .  A
C1049      H1058   1.083       .  S
C1050      C1053   1.374       .  A
N1051      C1052   1.355       .  A
N1051      H1061   1.045       .  S
C1052      C1053   1.395       .  A
C1053      H1059   1.083       .  S
N1054      C1055   1.356       .  A
N1054      H1062   1.045       .  S
C1055      C1056   1.394       .  A
C1056      H1060   1.082       .  S
C1063      C1068   1.385       .  A
C1063      C1064   1.399       .  A
C1063      N1069   1.341       .  A
C1064      C1065   1.398       .  A
C1064      H1075   1.082       .  S
C1065      C1074   1.371       .  A
C1065      C1066   1.385       .  A
C1066      C1067   1.405       .  A
C1066      N1072   1.346       .  A
C1067      C1068   1.405       .  A
C1067      H1076   1.082       .  S
C1068      C1071   1.379       .  A
N1069      C1070   1.354       .  A
N1069      H1079   1.045       .  S
C1070      C1071   1.398       .  A
C1071      H1077   1.082       .  S
N1072      C1073   1.357       .  A
N1072      H1080   1.045       .  S
C1073      C1074   1.393       .  A
C1074      H1078   1.083       .  S
C1081      C1086   1.385       .  A
C1081      C1082   1.400       .  A
C1081      N1087   1.339       .  A
C1082      C1083   1.398       .  A
C1082      H1093   1.083       .  S
C1083      C1092   1.373       .  A
C1083      C1084   1.385       .  A
C1084      C1085   1.402       .  A
C1084      N1090   1.341       .  A
C1085      C1086   1.401       .  A
C1085      H1094   1.082       .  S
C1086      C1089   1.377       .  A
N1087      C1088   1.355       .  A
N1087      H1097   1.045       .  S
C1088      C1089   1.395       .  A
C1089      H1095   1.082       .  S
N1090      C1091   1.355       .  A
N1090      H1098   1.045       .  S
C1091      C1092   1.393       .  A
C1092      H1096   1.083       .  S
C1099      C1104   1.384       .  A
C1099      C1100   1.411       .  A
C1099      N1105   1.349       .  A
C1100      C1101   1.410       .  A
C1100      H1111   1.082       .  S
C1101      C1110   1.387       .  A
C1101      C1102   1.384       .  A
C1102      C1103   1.400       .  A
C1102      N1108   1.340       .  A
C1103      C1104   1.398       .  A
C1103      H1112   1.082       .  S
C1104      C1107   1.374       .  A
N1105      C1106   1.360       .  A
N1105      H1115   1.045       .  S
C1106      C1107   1.393       .  A
C1107      H1113   1.082       .  S
N1108      C1109   1.354       .  A
N1108      H1116   1.045       .  S
C1109      C1110   1.401       .  A
C1110      H1114   1.082       .  S
C1117      C1122   1.384       .  A
C1117      C1118   1.403       .  A
C1117      N1123   1.344       .  A
C1118      C1119   1.402       .  A
C1118      H1129   1.082       .  S
C1119      C1128   1.378       .  A
C1119      C1120   1.384       .  A
C1120      C1121   1.407       .  A
C1120      N1126   1.346       .  A
C1121      C1122   1.407       .  A
C1121      H1130   1.082       .  S
C1122      C1125   1.383       .  A
N1123      C1124   1.356       .  A
N1123      H1133   1.045       .  S
C1124      C1125   1.400       .  A
C1125      H1131   1.082       .  S
N1126      C1127   1.357       .  A
N1126      H1134   1.045       .  S
C1127      C1128   1.395       .  A
C1128      H1132   1.083       .  S
C1135      C1140   1.384       .  A
C1135      C1136   1.401       .  A
C1135      N1141   1.340       .  A
C1136      C1137   1.399       .  A
C1136      H1147   1.082       .  S
C1137      C1146   1.375       .  A
C1137      C1138   1.384       .  A
C1138      C1139   1.406       .  A
C1138      N1144   1.344       .  A
C1139      C1140   1.405       .  A
C1139      H1148   1.082       .  S
C1140      C1143   1.382       .  A
N1141      C1142   1.356       .  A
N1141      H1151   1.045       .  S
C1142      C1143   1.397       .  A
C1143      H1149   1.082       .  S
N1144      C1145   1.357       .  A
N1144      H1152   1.045       .  S
C1145      C1146   1.393       .  A
C1146      H1150   1.083       .  S
C1153      C1158   1.385       .  A
C1153      C1154   1.400       .  A
C1153      N1159   1.341       .  A
C1154      C1155   1.399       .  A
C1154      H1165   1.083       .  S
C1155      C1164   1.373       .  A
C1155      C1156   1.385       .  A
C1156      C1157   1.405       .  A
C1156      N1162   1.345       .  A
C1157      C1158   1.404       .  A
C1157      H1166   1.082       .  S
C1158      C1161   1.380       .  A
N1159      C1160   1.355       .  A
N1159      H1169   1.045       .  S
C1160      C1161   1.397       .  A
C1161      H1167   1.082       .  S
N1162      C1163   1.356       .  A
N1162      H1170   1.045       .  S
C1163      C1164   1.394       .  A
C1164      H1168   1.083       .  S
C1171      C1176   1.385       .  A
C1171      C1172   1.402       .  A
C1171      N1177   1.345       .  A
C1172      C1173   1.402       .  A
C1172      H1183   1.082       .  S
C1173      C1182   1.375       .  A
C1173      C1174   1.385       .  A
C1174      C1175   1.399       .  A
C1174      N1180   1.340       .  A
C1175      C1176   1.399       .  A
C1175      H1184   1.083       .  S
C1176      C1179   1.371       .  A
N1177      C1178   1.355       .  A
N1177      H1187   1.045       .  S
C1178      C1179   1.395       .  A
C1179      H1185   1.083       .  S
N1180      C1181   1.354       .  A
N1180      H1188   1.045       .  S
C1181      C1182   1.394       .  A
C1182      H1186   1.083       .  S
C1189      C1194   1.384       .  A
C1189      C1190   1.401       .  A
C1189      N1195   1.341       .  A
C1190      C1191   1.401       .  A
C1190      H1201   1.083       .  S
C1191      C1200   1.374       .  A
C1191      C1192   1.385       .  A
C1192      C1193   1.404       .  A
C1192      N1198   1.346       .  A
C1193      C1194   1.403       .  A
C1193      H1202   1.082       .  S
C1194      C1197   1.379       .  A
N1195      C1196   1.355       .  A
N1195      H1205   1.045       .  S
C1196      C1197   1.395       .  A
C1197      H1203   1.082       .  S
N1198      C1199   1.356       .  A
N1198      H1206   1.044       .  S
C1199      C1200   1.397       .  A
C1200      H1204   1.083       .  S
