geometry optimzed in LAMMPS
_audit_creation_date              2020-11-30 
_audit_creation_method            'lammps2cif' 
_symmetry_space_group_name_H-M    'P1' 
_symmetry_Int_Tables_number       1 
_symmetry_cell_setting            triclinic 
loop_ 
_symmetry_equiv_pos_as_xyz 
  x,y,z 
_cell_length_a                    34.178749868885845 
_cell_length_b                    34.91840968522138 
_cell_length_c                    30.82354519170661 
_cell_angle_alpha                 90.4415106819607 
_cell_angle_beta                  89.72365708101498 
_cell_angle_gamma                 119.81107836934234 
loop_ 
_atom_site_label 
_atom_site_type_symbol 
_atom_site_fract_x 
_atom_site_fract_y 
_atom_site_fract_z 
_atom_site_charge 
C1          C  0.33252048  0.17453057  0.04138678    -0.02200
C2          C  0.33307926  0.17203984  0.24009815    -0.02200
C3          C  0.16153782  0.33754318  0.73936338    -0.02200
C4          C  0.16318634  0.33965307  0.54069590    -0.02200
C5          C  0.00516907  0.01367551  0.05081764     0.42750
N6          N  0.47352495  0.48642496  0.99022644     0.01640
C7          C  0.08185582  0.47544068  0.80613336    -0.06240
H8          H  0.16163577  0.12878695  0.89132035     0.07130
C9          C  0.02320933  0.14059260  0.84272721    -0.06590
Co10       Co  0.03472041  0.47358113  0.93092873     0.74180
N11         N  0.10455560  0.06373134  0.90149587    -0.25770
Co12       Co  0.06377704  0.04706670  0.84666080     0.74070
C13         C  0.07093034  0.16874427  0.83209010     0.42850
N14         N  0.43856637  0.05388523  0.91269154     0.01250
N15         N  0.05878987  0.10429314  0.85084439     0.01360
N16         N  0.06308150  0.42761431  0.86178518    -0.46620
H17         H  0.06900882  0.01118529  0.03147838     0.07120
N18         N  0.09352950  0.03509266  0.93327358     0.01640
N19         N  0.02088117  0.02791993  0.79480064     0.01380
C20         C  0.49241847  0.50349378  0.73270424     0.42990
N21         N  0.42742598  0.02511252  0.94433514    -0.25220
C22         C  0.46942087  0.37289830  0.93989858    -0.06140
N23         N  0.46720256  0.00070018  0.02786665    -0.46330
N24         N  0.02901019  0.01531830  0.75726377    -0.46550
C25         C  0.42138291  0.34513005  0.94980750     0.42860
N26         N  0.05597583  0.46066980  0.87176708     0.01630
N27         N  0.38939220  0.45100183  0.88258049    -0.25250
N28         N  0.01315342  0.48878885  0.98747710    -0.25740
N29         N  0.40076412  0.47980578  0.85091907     0.01270
H30         H  0.33198342  0.38600260  0.89192897     0.07160
H31         H  0.42773931  0.50571509  0.74959134     0.07200
N32         N  0.06743367  0.48941741  0.84004928    -0.25790
N33         N  0.01882951  0.10144092  0.85312946    -0.25400
N34         N  0.43500782  0.41036617  0.93307090     0.01640
C35         C  0.15576093  0.09080339  0.95432204     0.43030
C36         C  0.41439137  0.03940060  0.97886608    -0.06650
N37         N  0.48117621  0.02550232  0.79644885    -0.25400
H38         H  0.99524716  0.14593563  0.83633396     0.07180
N39         N  0.12328697  0.04985866  0.96528575    -0.46620
H40         H  0.40208068  0.02207105  0.00920683     0.07170
C41         C  0.33841174  0.42475786  0.82912017     0.42870
C42         C  0.03542831  0.00503381  0.02457630    -0.06150
Co43       Co  0.43035980  0.46745909  0.93778556     0.73820
N44         N  0.43252721  0.08743720  0.92354105    -0.46340
C45         C  0.07864172  0.43436622  0.82043229     0.43130
N46         N  0.40254092  0.37085054  0.94509049    -0.46330
Co47       Co  0.45937600  0.04081101  0.85317858     0.73890
C48         C  0.46060287  0.01070664  0.75814959    -0.06660
C49         C  0.14372874  0.09996510  0.91155928    -0.06220
N50         N  0.47477868  0.41275018  0.93075568    -0.25750
N51         N  0.09054347  0.14369230  0.83758632    -0.46510
H52         H  0.09472063  0.49282502  0.77589256     0.07140
C53         C  0.35011956  0.41499480  0.87196523    -0.06630
Cl54       Cl  0.49706605  0.00721050  0.89213204    -0.49630
C55         C  0.41875935  0.08104047  0.96550298     0.42900
H56         H  0.49666916  0.36626613  0.94557138     0.07110
N57         N  0.37133260  0.46560357  0.81868525    -0.46340
C58         C  0.42125020  0.08507126  0.32734478     0.42750
N59         N  0.42684101  0.02996529  0.34979372     0.01640
C60         C  0.04089610  0.01185879  0.52269618    -0.06240
H61         H  0.13898142  0.14773237  0.44401174     0.07130
C62         C  0.11310088  0.03645840  0.30370093    -0.06590
Co63       Co  0.47035355  0.04452641  0.43623514     0.74180
N64         N  0.07017904  0.10052310  0.42864185    -0.25770
Co65       Co  0.06925924  0.04001884  0.42869715     0.74070
C66         C  0.15141156  0.07801252  0.31764106     0.42850
N67         N  0.99863230  0.48240913  0.29269945     0.01250
N68         N  0.10282715  0.05223938  0.36931282     0.01360
N69         N  0.47658473  0.01543489  0.52711861    -0.46620
H70         H  0.45531971  0.12510585  0.38970927     0.07120
N71         N  0.03246327  0.10222936  0.43111326     0.01640
N72         N  0.06652814  0.47888191  0.43134515     0.01380
C73         C  0.07296020  0.42379423  0.45259961     0.42990
N74         N  0.46111922  0.48433202  0.29504205    -0.25220
C75         C  0.38202128  0.47272067  0.47791399    -0.06140
N76         N  0.41191590  0.04378426  0.31735213    -0.46330
N77         N  0.08167632  0.46477873  0.46348281    -0.46550
C78         C  0.34406964  0.43062124  0.46497124     0.42760
N79         N  0.49557115  0.02736135  0.48855499     0.01630
N80         N  0.42354483  0.40932126  0.35221253    -0.25250
N81         N  0.44523929  0.05945254  0.38115415    -0.25740
N82         N  0.46113241  0.40741581  0.34985201     0.01270
H83         H  0.35476066  0.36289401  0.33625431     0.07160
H84         H  0.04007515  0.38475967  0.38969413     0.07200
N85         N  0.03311709  0.02561732  0.48532069    -0.25790
N86         N  0.08494471  0.02290824  0.33775182    -0.25400
N87         N  0.39098229  0.45692189  0.41190212     0.01640
C88         C  0.08446555  0.16811771  0.44803569     0.43030
C89         C  0.45538700  0.99997544  0.25758873    -0.06650
N90         N  0.04852293  0.44974493  0.39961535    -0.25400
H91         H  0.10822833  0.01841963  0.27367457     0.07180
N92         N  0.03954247  0.14163966  0.44330530    -0.46620
H93         H  0.42796622  0.00579730  0.25009524     0.07170
C94         C  0.40879160  0.34201037  0.33220772     0.42870
C95         C  0.44316797  0.09554769  0.37011497    -0.06150
Co96       Co  0.42440849  0.46937789  0.35209562     0.73820
N97         N  0.01966330  0.99641289  0.25538619    -0.46340
C98         C  0.50323875  0.50495866  0.54998584     0.43130
N99         N  0.35102816  0.42344223  0.42304840    -0.46330
Co100      Co  0.02345236  0.46492091  0.34479822     0.73890
C101        C  0.05140887  0.41389633  0.40979944    -0.06660
C102        C  0.10490607  0.14072903  0.43811385    -0.06220
N103        N  0.40924174  0.48642090  0.44328755    -0.25750
N104        N  0.14327749  0.08528537  0.35909429    -0.46510
H105        H  0.06894397  0.00674751  0.52936595     0.07140
C106        C  0.38863910  0.36944220  0.34242267    -0.06630
Cl107      Cl  0.49690192  0.00474105  0.39045759    -0.49630
C108        C  0.99483452  0.00865586  0.23187847     0.42900
H109        H  0.38752409  0.49071333  0.50807373     0.07110
N110        N  0.45375125  0.36804089  0.33728851    -0.46340
C111        C  0.45692990  0.47929404  0.61621013    -0.21020
C112        C  0.49947994  0.49821699  0.59641077    -0.09060
C113        C  0.03860494  0.01433769  0.62165839     0.29800
C114        C  0.03515630  0.01326909  0.66621792    -0.21020
C115        C  0.49298824  0.49711559  0.68623089    -0.09070
C116        C  0.45355980  0.47856766  0.66123230     0.29810
F117        F  0.41223768  0.46049685  0.68004936    -0.19590
H118        H  0.42656422  0.46627924  0.59681213     0.18170
H119        H  0.06604234  0.02775848  0.68493395     0.18180
F120        F  0.08045021  0.03478460  0.60380061    -0.19580
C121        C  0.04404751  0.52477019  0.12081474    -0.21020
C122        C  0.00972738  0.02534629  0.09670318    -0.09060
C123        C  0.47646117  0.03100202  0.11789175     0.29800
C124        C  0.47375393  0.02923948  0.16285595    -0.21020
C125        C  0.00436290  0.02218700  0.18667799    -0.09070
C126        C  0.04150914  0.52320830  0.16567153     0.29810
F127        F  0.07339343  0.51906619  0.18791340    -0.19590
H128        H  0.07098519  0.52204554  0.10525981     0.18170
H129        H  0.44604362  0.03049942  0.17853777     0.18180
F130        F  0.44475852  0.03508507  0.09526980    -0.19580
C131        C  0.17067236  0.27926633  0.49537583    -0.21020
C132        C  0.14409703  0.29178834  0.52104030    -0.09060
C133        C  0.09703478  0.26129910  0.52225583     0.29800
C134        C  0.07813128  0.22162531  0.49854598    -0.21020
C135        C  0.10512002  0.21035637  0.47301116    -0.09070
C136        C  0.15171479  0.23944682  0.47222962     0.29810
F137        F  0.17915379  0.23071248  0.44720591    -0.19590
H138        H  0.20616789  0.30064076  0.49028951     0.18170
H139        H  0.04201455  0.19972026  0.50006854     0.18180
F140        F  0.06881170  0.27082249  0.54506924    -0.19580
C141        C  0.11672166  0.38126979  0.54320153    -0.21020
C142        C  0.13379144  0.35776346  0.51968591    -0.09060
C143        C  0.12538881  0.35301836  0.47404425     0.29800
C144        C  0.10353334  0.37251409  0.45343456    -0.21020
C145        C  0.09035627  0.39869407  0.47656702    -0.09070
C146        C  0.09654460  0.40251887  0.52182621     0.29810
F147        F  0.08327260  0.42702224  0.54548316    -0.19590
H148        H  0.11989061  0.38481203  0.57796943     0.18170
H149        H  0.09945509  0.36921308  0.41853980     0.18180
F150        F  0.14148318  0.33233863  0.44818819    -0.19580
C151        C  0.22660440  0.40367482  0.49533732    -0.21020
C152        C  0.21354573  0.36964795  0.52649650    -0.09060
C153        C  0.24797881  0.36178459  0.54194553     0.29800
C154        C  0.29055299  0.38162520  0.52188450    -0.21020
C155        C  0.29990713  0.41001239  0.48662304    -0.09070
C156        C  0.26833432  0.42217552  0.47462916     0.29810
F157        F  0.27790226  0.45213983  0.44265962    -0.19590
H158        H  0.20466062  0.41579380  0.48519363     0.18170
H159        H  0.31572204  0.37375940  0.53299865     0.18180
F160        F  0.23924899  0.33194055  0.57377585    -0.19580
C161        C  0.12901176  0.22067003  0.77962189    -0.21020
C162        C  0.09078903  0.20943427  0.80530772    -0.09060
C163        C  0.07122644  0.23653713  0.80375339     0.29800
C164        C  0.09118967  0.27538166  0.77942800    -0.21020
C165        C  0.13229618  0.28943950  0.75686110    -0.09070
C166        C  0.14908924  0.25950085  0.75519918     0.29810
F167        F  0.18687976  0.26942855  0.73211340    -0.19590
H168        H  0.14395555  0.19966275  0.77885515     0.18170
H169        H  0.07480169  0.29502313  0.78007145     0.18180
F170        F  0.03378245  0.22678497  0.82724618    -0.19580
C171        C  0.09387004  0.40110843  0.75437968    -0.21020
C172        C  0.09934787  0.41078662  0.79892487    -0.09060
C173        C  0.12558999  0.39845297  0.82299161     0.29800
C174        C  0.14670253  0.37774016  0.80295589    -0.21020
C175        C  0.14175821  0.36670199  0.75803304    -0.09070
C176        C  0.11317862  0.37800045  0.73434483     0.29810
F177        F  0.10073357  0.36451417  0.69284584    -0.19590
H178        H  0.07279218  0.40969252  0.73537495     0.18170
H179        H  0.16575915  0.36948099  0.82444312     0.18180
F180        F  0.13160022  0.40701845  0.86625426    -0.19580
C181        C  0.25871280  0.36442431  0.82308122    -0.21020
C182        C  0.29616892  0.39931806  0.80376346    -0.09060
C183        C  0.29193007  0.41090710  0.76116430     0.29800
C184        C  0.25021201  0.38949859  0.73955723    -0.21020
C185        C  0.21054430  0.35634524  0.75979968    -0.09070
C186        C  0.21703878  0.34341429  0.80224709     0.29810
F187        F  0.18260291  0.31267571  0.82650300    -0.19590
H188        H  0.26082407  0.35443036  0.85574795     0.18170
H189        H  0.25038743  0.40019612  0.70709273     0.18180
F190        F  0.32810125  0.44344463  0.74022442    -0.19580
C191        C  0.18195722  0.37714595  0.66347541    -0.21020
C192        C  0.16163584  0.33714617  0.68738870    -0.09060
C193        C  0.13896404  0.29809018  0.66137157     0.29800
C194        C  0.14075347  0.29930808  0.61583223    -0.21020
C195        C  0.16147229  0.33904052  0.59214596    -0.09070
C196        C  0.18259829  0.37825794  0.61751789     0.29810
F197        F  0.20394356  0.41823596  0.59789639    -0.19590
H198        H  0.19625130  0.40839579  0.68061130     0.18170
H199        H  0.12469282  0.26769713  0.59969658     0.18180
F200        F  0.11247865  0.25756381  0.67841636    -0.19580
C201        C  0.24533100  0.13366698  0.23451145    -0.21020
C202        C  0.28414342  0.14201366  0.25866594    -0.09060
C203        C  0.27649612  0.12890641  0.30316724     0.29800
C204        C  0.23359525  0.10892736  0.32140065    -0.21020
C205        C  0.19612732  0.10016733  0.29679087    -0.09070
C206        C  0.20192249  0.11177192  0.25284098     0.29810
F207        F  0.16587946  0.10392586  0.22815124    -0.19590
H208        H  0.24818209  0.14535941  0.20166829     0.18170
H209        H  0.22967626  0.09999760  0.35540422     0.18180
F210        F  0.30982923  0.13664503  0.33109643    -0.19580
C211        C  0.32327214  0.23251232  0.28171467    -0.21020
C212        C  0.35097766  0.22014773  0.25794130    -0.09060
C213        C  0.39751104  0.25223719  0.25476329     0.29800
C214        C  0.41569456  0.29152511  0.27875132    -0.21020
C215        C  0.38830004  0.30105758  0.30558369    -0.09070
C216        C  0.34163461  0.27185605  0.30559172     0.29810
F217        F  0.31363325  0.28013082  0.33022799    -0.19590
H218        H  0.28718352  0.21135165  0.28369211     0.18170
H219        H  0.45165870  0.31413352  0.27695612     0.18180
F220        F  0.42619747  0.24368582  0.23149578    -0.19580
C221        C  0.36511510  0.11758022  0.23991318    -0.21020
C222        C  0.36446891  0.15441675  0.25864060    -0.09060
C223        C  0.38962116  0.17084838  0.29834596     0.29800
C224        C  0.40995154  0.14959993  0.31845290    -0.21020
C225        C  0.40602861  0.11087830  0.30139010    -0.09070
C226        C  0.38490229  0.09590956  0.26092222     0.29810
F227        F  0.38218348  0.05949159  0.24184310    -0.19590
H228        H  0.34996117  0.10410900  0.20920828     0.18170
H229        H  0.42617591  0.16218088  0.34947414     0.18180
F230        F  0.38946361  0.20334199  0.32262270    -0.19580
C231        C  0.23807009  0.14347682  0.95524329    -0.21020
C232        C  0.19874927  0.11629813  0.97818828    -0.09060
C233        C  0.20161232  0.11163768  0.02314329     0.29800
C234        C  0.24354614  0.13276248  0.04433118    -0.21020
C235        C  0.28427439  0.15678844  0.02083360    -0.09070
C236        C  0.27996356  0.16286020  0.97557705     0.29810
F237        F  0.31660205  0.18430207  0.94950104    -0.19590
H238        H  0.23688718  0.14754766  0.92056328     0.18170
H239        H  0.24313425  0.12872120  0.07891732     0.18180
F240        F  0.16381447  0.08633274  0.04670878    -0.19580
C241        C  0.42018415  0.27653056  0.97364796    -0.21020
C242        C  0.40060874  0.30336036  0.97481636    -0.09060
C243        C  0.36233950  0.29052689  0.00099764     0.29800
C244        C  0.34377402  0.25115999  0.02450217    -0.21020
C245        C  0.36172143  0.22224719  0.02216163    -0.09070
C246        C  0.40133646  0.23666766  0.99620392     0.29810
F247        F  0.42172654  0.21246019  0.98963368    -0.19590
H248        H  0.44973570  0.28570321  0.95379692     0.18170
H249        H  0.31372747  0.24206959  0.04355761     0.18180
F250        F  0.34253733  0.31584367  0.00401045    -0.19580
C251        C  0.41290383  0.12660635  0.02532670    -0.21020
C252        C  0.39586588  0.10207049  0.98701885    -0.09060
C253        C  0.35447862  0.09431832  0.97116995     0.29800
C254        C  0.33168060  0.11311323  0.99165939    -0.21020
C255        C  0.35136080  0.14377341  0.02644485    -0.09070
C256        C  0.39121735  0.14753831  0.04488659     0.29810
F257        F  0.41156609  0.17451713  0.07935801    -0.19590
H258        H  0.44404193  0.13112547  0.03903909     0.18170
H259        H  0.29906426  0.10368360  0.97847829     0.18180
F260        F  0.33574436  0.06806659  0.93581305    -0.19580
C261        C  0.35327133  0.21233872  0.16428571    -0.21020
C262        C  0.33285434  0.17246640  0.18813200    -0.09060
C263        C  0.31015093  0.13343403  0.16220593     0.29800
C264        C  0.31084764  0.13489862  0.11631337    -0.21020
C265        C  0.33193446  0.17502004  0.09293414    -0.09070
C266        C  0.35464731  0.21384497  0.11881362     0.29810
F267        F  0.38045382  0.25439445  0.10154252    -0.19590
H268        H  0.36914226  0.24410599  0.17991207     0.18170
H269        H  0.29381085  0.10391236  0.09865442     0.18180
F270        F  0.28426699  0.09339905  0.18082989    -0.19580
C271        C  0.33250553  0.67453189  0.04138325    -0.02200
C272        C  0.33305694  0.67204698  0.24009423    -0.02200
C273        C  0.16154322  0.83753979  0.73935856    -0.02200
C274        C  0.16320492  0.83965100  0.54069154    -0.02200
C275        C  0.00519274  0.51368312  0.05081747     0.42750
N276        N  0.47351827  0.98642185  0.99021902     0.01640
C277        C  0.08189187  0.97545601  0.80614987    -0.06240
H278        H  0.16162557  0.62877740  0.89129986     0.07130
C279        C  0.02320456  0.64059689  0.84273611    -0.06590
Co280      Co  0.03473066  0.97358674  0.93093664     0.74180
N281        N  0.10454598  0.56372180  0.90147968    -0.25770
Co282      Co  0.06375586  0.54705856  0.84665390     0.74070
C283        C  0.07092415  0.66874220  0.83208801     0.42850
N284        N  0.43856645  0.55389341  0.91271576     0.01250
N285        N  0.05877812  0.60428965  0.85084438     0.01360
N286        N  0.06310982  0.92762625  0.86179988    -0.46620
H287        H  0.06902341  0.51118363  0.03146388     0.07120
N288        N  0.09352299  0.53508396  0.93325763     0.01640
N289        N  0.02084871  0.52791500  0.79480399     0.01380
C290        C  0.49245595  0.00347474  0.73270274     0.42990
N291        N  0.42742774  0.52511968  0.94435808    -0.25220
C292        C  0.46943237  0.87290044  0.93990213    -0.06140
N293        N  0.46722092  0.50070919  0.02787571    -0.46330
N294        N  0.02897270  0.51532241  0.75726011    -0.46550
C295        C  0.42139171  0.84513016  0.94980037     0.42860
N296        N  0.05600138  0.96068058  0.87178005     0.01630
N297        N  0.38940598  0.95099484  0.88255842    -0.25250
N298        N  0.01314923  0.98879015  0.98747906    -0.25740
N299        N  0.40078042  0.97979673  0.85089486     0.01270
H300        H  0.33199524  0.88599815  0.89191044     0.07160
H301        H  0.42776725  0.00568551  0.74957736     0.07200
N302        N  0.06746327  0.98942971  0.84006297    -0.25790
N303        N  0.01882095  0.60144370  0.85313927    -0.25400
N304        N  0.43501858  0.91036593  0.93306037     0.01640
C305        C  0.15575724  0.59079420  0.95429987     0.43030
C306        C  0.41439592  0.53940742  0.97889142    -0.06650
N307        N  0.48114776  0.52550561  0.79646078    -0.25400
H308        H  0.99524386  0.64594368  0.83634846     0.07180
N309        N  0.12328397  0.54985041  0.96526656    -0.46620
H310        H  0.40208562  0.52207624  0.00923147     0.07170
C311        C  0.33842767  0.92474812  0.82909689     0.42870
C312        C  0.03544215  0.50503404  0.02456943    -0.06150
Co313      Co  0.43036438  0.96745505  0.93776938     0.73820
N314        N  0.43252766  0.58744482  0.92356813    -0.46340
C315        C  0.07867692  0.93438168  0.82044918     0.43130
N316        N  0.40254976  0.87084944  0.94507469    -0.46330
Co317      Co  0.45936279  0.54081699  0.85319705     0.73890
C318        C  0.46057086  0.51072341  0.75816110    -0.06660
C319        C  0.14372128  0.59995517  0.91153886    -0.06220
N320        N  0.47479101  0.91275222  0.93075577    -0.25750
N321        N  0.09053249  0.64368551  0.83757979    -0.46510
H322        H  0.09475918  0.99284118  0.77590987     0.07140
C323        C  0.35013372  0.91498763  0.87194368    -0.06630
Cl324      Cl  0.49705373  0.50720966  0.89213710    -0.49630
C325        C  0.41876278  0.58104781  0.96553092     0.42900
H326        H  0.49667991  0.86626909  0.94558329     0.07110
N327        N  0.37134969  0.96559307  0.81866017    -0.46340
C328        C  0.42124434  0.58507840  0.32731154     0.42750
N329        N  0.42683303  0.52997204  0.34976257     0.01640
C330        C  0.04083497  0.51185228  0.52270109    -0.06240
H331        H  0.13895767  0.64771466  0.44402165     0.07130
C332        C  0.11309049  0.53644403  0.30372086    -0.06590
Co333      Co  0.47032682  0.54453099  0.43621275     0.74180
N334        N  0.07015553  0.60051548  0.42864059    -0.25770
Co335      Co  0.06922554  0.54000694  0.42870609     0.74070
C336        C  0.15139979  0.57799724  0.31766451     0.42850
N337        N  0.99863679  0.98241481  0.29270121     0.01250
N338        N  0.10280859  0.55222445  0.36933025     0.01360
N339        N  0.47653160  0.51544526  0.52710329    -0.46620
H340        H  0.45530593  0.62511070  0.38967930     0.07120
N341        N  0.03244357  0.60222975  0.43110143     0.01640
N342        N  0.06657060  0.97889737  0.43132664     0.01380
C343        C  0.07301041  0.92381281  0.45257544     0.42990
N344        N  0.46112143  0.98433258  0.29505518    -0.25220
C345        C  0.38205882  0.97270656  0.47794837    -0.06140
N346        N  0.41191010  0.54379117  0.31731918    -0.46330
N347        N  0.08172566  0.96479639  0.46346010    -0.46550
C348        C  0.34410694  0.93060553  0.46500728     0.42760
N349        N  0.49552514  0.52736107  0.48854159     0.01630
N350        N  0.42356827  0.90932341  0.35222674    -0.25250
N351        N  0.44522872  0.55945937  0.38112332    -0.25740
N352        N  0.46115633  0.90742016  0.34985169     0.01270
H353        H  0.35478069  0.86289715  0.33628341     0.07160
H354        H  0.04011532  0.88477466  0.38967440     0.07200
N355        N  0.03306751  0.52560895  0.48531934    -0.25790
N356        N  0.08492958  0.52289428  0.33776808    -0.25400
N357        N  0.39101178  0.95691384  0.41193203     0.01640
C358        C  0.08445230  0.66811432  0.44802853     0.43030
C359        C  0.45539828  0.49998012  0.25757305    -0.06650
N360        N  0.04856060  0.94975909  0.39959826    -0.25400
H361        H  0.10822039  0.51840698  0.27369379     0.07180
N362        N  0.03952865  0.64164308  0.44329080    -0.46620
H363        H  0.42798282  0.50580755  0.25007145     0.07170
C364        C  0.40881117  0.84201499  0.33221111     0.42870
C365        C  0.44315915  0.59555459  0.37008273    -0.06150
Co366      Co  0.42442484  0.96937534  0.35211836     0.73820
N367        N  0.01966986  0.49640812  0.25538958    -0.46340
C368        C  0.50330142  0.00495196  0.54999116     0.43130
N369        N  0.35106101  0.92343143  0.42308162    -0.46330
Co370      Co  0.02347297  0.96493035  0.34479008     0.73890
C371        C  0.05145209  0.91391246  0.40977863    -0.06660
C372        C  0.10488586  0.64071812  0.43811565    -0.06220
N373        N  0.40927418  0.98641128  0.44331816    -0.25750
N374        N  0.14326069  0.58527049  0.35911593    -0.46510
H375        H  0.06888054  0.50674139  0.52938668     0.07140
C376        C  0.38866069  0.86944488  0.34244121    -0.06630
Cl377      Cl  0.49687753  0.50473760  0.39045043    -0.49630
C378        C  0.99485134  0.50865738  0.23187390     0.42900
H379        H  0.38756404  0.99069789  0.50810934     0.07110
N380        N  0.45377274  0.86804622  0.33728028    -0.46340
C381        C  0.45697593  0.97929395  0.61620549    -0.21020
C382        C  0.49952640  0.99816446  0.59641215    -0.09060
C383        C  0.03857134  0.51447571  0.62164910     0.29800
C384        C  0.03513205  0.51341292  0.66620795    -0.21020
C385        C  0.49301875  0.99705325  0.68623373    -0.09070
C386        C  0.45359743  0.97856251  0.66122673     0.29810
F387        F  0.41227444  0.96055401  0.68003299    -0.19590
H388        H  0.42661749  0.96633521  0.59680380     0.18170
H389        H  0.06602328  0.52795858  0.68491853     0.18180
F390        F  0.08041141  0.53498880  0.60378026    -0.19580
C391        C  0.04403059  0.02479497  0.12081663    -0.21020
C392        C  0.00976227  0.52535647  0.09670200    -0.09060
C393        C  0.47651738  0.53104548  0.11789070     0.29800
C394        C  0.47380749  0.52928055  0.16285446    -0.21020
C395        C  0.00439274  0.52219203  0.18667554    -0.09070
C396        C  0.04149479  0.02323580  0.16567361     0.29810
F397        F  0.07340133  0.01913113  0.18791628    -0.19590
H398        H  0.07098489  0.02209854  0.10526237     0.18170
H399        H  0.44611181  0.53056732  0.17853656     0.18180
F400        F  0.44483578  0.53516314  0.09526857    -0.19580
C401        C  0.17067430  0.77925735  0.49536729    -0.21020
C402        C  0.14410552  0.79178606  0.52103326    -0.09060
C403        C  0.09704106  0.76130508  0.52224715     0.29800
C404        C  0.07812978  0.72163099  0.49853675    -0.21020
C405        C  0.10511273  0.71035422  0.47300251    -0.09070
C406        C  0.15170911  0.73943783  0.47222059     0.29810
F407        F  0.17914259  0.73069691  0.44719562    -0.19590
H408        H  0.20617035  0.80062740  0.49027910     0.18170
H409        H  0.04201199  0.69973168  0.50005889     0.18180
F410        F  0.06882387  0.77083674  0.54506019    -0.19580
C411        C  0.11674266  0.88127024  0.54318590    -0.21020
C412        C  0.13382460  0.85777308  0.51967322    -0.09060
C413        C  0.12544406  0.85304305  0.47402787     0.29800
C414        C  0.10359482  0.87254221  0.45341272    -0.21020
C415        C  0.09040348  0.89871140  0.47654434    -0.09070
C416        C  0.09657309  0.90252383  0.52180598     0.29810
F417        F  0.08328806  0.92701791  0.54546108    -0.19590
H418        H  0.11989543  0.88480073  0.57795557     0.18170
H419        H  0.09953113  0.86925173  0.41851616     0.18180
F420        F  0.14155118  0.83237171  0.44817614    -0.19580
C421        C  0.22664768  0.90368473  0.49536490    -0.21020
C422        C  0.21356946  0.86963762  0.52650408    -0.09060
C423        C  0.24798925  0.86175337  0.54195070     0.29800
C424        C  0.29056868  0.88159251  0.52189987    -0.21020
C425        C  0.29994219  0.91000243  0.48665471    -0.09070
C426        C  0.26838365  0.92218705  0.47466845     0.29810
F427        F  0.27797065  0.95217222  0.44271594    -0.19590
H428        H  0.20471459  0.91581908  0.48522834     0.18170
H429        H  0.31572644  0.87370882  0.53300886     0.18180
F430        F  0.23924062  0.83189122  0.57376710    -0.19580
C431        C  0.12900617  0.72066311  0.77961679    -0.21020
C432        C  0.09078414  0.70943075  0.80530286    -0.09060
C433        C  0.07122482  0.73653637  0.80374691     0.29800
C434        C  0.09119139  0.77538067  0.77942118    -0.21020
C435        C  0.13229862  0.78943620  0.75685625    -0.09070
C436        C  0.14908700  0.75949389  0.75519378     0.29810
F437        F  0.18687658  0.76941811  0.73210801    -0.19590
H438        H  0.14394730  0.69965354  0.77885059     0.18170
H439        H  0.07480521  0.79502384  0.78006244     0.18180
F440        F  0.03378071  0.72678720  0.82723805    -0.19580
C441        C  0.09390150  0.90113020  0.75438949    -0.21020
C442        C  0.09937426  0.91079582  0.79893737    -0.09060
C443        C  0.12560298  0.89844388  0.82300162     0.29800
C444        C  0.14670847  0.87772659  0.80296072    -0.21020
C445        C  0.14176965  0.86670169  0.75803463    -0.09070
C446        C  0.11320217  0.87801765  0.73434896     0.29810
F447        F  0.10075923  0.86454318  0.69284709    -0.19590
H448        H  0.07283311  0.90972784  0.73538642     0.18170
H449        H  0.16575370  0.86945134  0.82444631     0.18180
F450        F  0.13160692  0.90699558  0.86626677    -0.19580
C451        C  0.25872689  0.86441645  0.82306462    -0.21020
C452        C  0.29618178  0.89930957  0.80374424    -0.09060
C453        C  0.29193891  0.91089858  0.76114655     0.29800
C454        C  0.25021830  0.88949158  0.73954412    -0.21020
C455        C  0.21055174  0.85633914  0.75978955    -0.09070
C456        C  0.21705053  0.84340714  0.80223465     0.29810
F457        F  0.18261803  0.81266565  0.82649153    -0.19590
H458        H  0.26084128  0.85442138  0.85572993     0.18170
H459        H  0.25039177  0.90018956  0.70708042     0.18180
F460        F  0.32810865  0.94343462  0.74020358    -0.19580
C461        C  0.18196170  0.87714240  0.66347029    -0.21020
C462        C  0.16163754  0.83714274  0.68738368    -0.09060
C463        C  0.13896467  0.79808689  0.66136635     0.29800
C464        C  0.14075794  0.79930459  0.61582686    -0.21020
C465        C  0.16148212  0.83903715  0.59214098    -0.09070
C466        C  0.18260659  0.87825443  0.61751298     0.29810
F467        F  0.20395476  0.91823243  0.59789162    -0.19590
H468        H  0.19625632  0.90839241  0.68060598     0.18170
H469        H  0.12469725  0.76769389  0.59969048     0.18180
F470        F  0.11247622  0.75756112  0.67841110    -0.19580
C471        C  0.24530491  0.63365989  0.23452148    -0.21020
C472        C  0.28412475  0.64202474  0.25867279    -0.09060
C473        C  0.27648829  0.62893333  0.30317877     0.29800
C474        C  0.23358963  0.60894629  0.32141816    -0.21020
C475        C  0.19611370  0.60016361  0.29681019    -0.09070
C476        C  0.20189939  0.61175754  0.25285733     0.29810
F477        F  0.16584896  0.60389297  0.22816988    -0.19590
H478        H  0.24814666  0.64534178  0.20167522     0.18170
H479        H  0.22967887  0.60002814  0.35542466     0.18180
F480        F  0.30983085  0.63669929  0.33110654    -0.19580
C481        C  0.32326916  0.73252511  0.28172098    -0.21020
C482        C  0.35096487  0.72015642  0.25793672    -0.09060
C483        C  0.39749859  0.75224259  0.25474755     0.29800
C484        C  0.41569321  0.79152961  0.27873835    -0.21020
C485        C  0.38830938  0.80106375  0.30558460    -0.09070
C486        C  0.34164269  0.77186649  0.30560237     0.29810
F487        F  0.31365073  0.78014258  0.33025230    -0.19590
H488        H  0.28718023  0.71136832  0.28370453     0.18170
H489        H  0.45165747  0.81413521  0.27693504     0.18180
F490        F  0.42617528  0.74368736  0.23146778    -0.19580
C491        C  0.36508434  0.61757961  0.23989940    -0.21020
C492        C  0.36444655  0.65441996  0.25862840    -0.09060
C493        C  0.38961104  0.67085441  0.29832693     0.29800
C494        C  0.40994573  0.64960668  0.31842596    -0.21020
C495        C  0.40601583  0.61088263  0.30136237    -0.09070
C496        C  0.38487640  0.59590966  0.26090090     0.29810
F497        F  0.38214956  0.55948849  0.24182113    -0.19590
H498        H  0.34992167  0.60410508  0.20919880     0.18170
H499        H  0.42618133  0.66219191  0.34944187     0.18180
F500        F  0.38946802  0.70335471  0.32260435    -0.19580
C501        C  0.23806681  0.64346666  0.95522417    -0.21020
C502        C  0.19874331  0.61629283  0.97816778    -0.09060
C503        C  0.20160071  0.61164053  0.02312492     0.29800
C504        C  0.24353172  0.63276803  0.04431705    -0.21020
C505        C  0.28426278  0.65678807  0.02082242    -0.09070
C506        C  0.27995804  0.66285278  0.97556300     0.29810
F507        F  0.31660033  0.68429069  0.94949083    -0.19590
H508        H  0.23688735  0.64753126  0.92054256     0.18170
H509        H  0.24311549  0.62873342  0.07890451     0.18180
F510        F  0.16379975  0.58634121  0.04668857    -0.19580
C511        C  0.42018512  0.77652936  0.97365001    -0.21020
C512        C  0.40061083  0.80336015  0.97480885    -0.09060
C513        C  0.36233444  0.79052670  0.00097963     0.29800
C514        C  0.34376232  0.75115989  0.02448468    -0.21020
C515        C  0.36171008  0.72224702  0.02215550    -0.09070
C516        C  0.40133040  0.73666601  0.99620588     0.29810
F517        F  0.42171963  0.71245677  0.98964304    -0.19590
H518        H  0.44974129  0.78570151  0.95380626     0.18170
H519        H  0.31371128  0.74207031  0.04353245     0.18180
F520        F  0.34253176  0.81584366  0.00398201    -0.19580
C521        C  0.41289439  0.62661103  0.02535011    -0.21020
C522        C  0.39586089  0.60207077  0.98704401    -0.09060
C523        C  0.35447274  0.59431197  0.97119069     0.29800
C524        C  0.33167085  0.61310695  0.99167220    -0.21020
C525        C  0.35134814  0.64377349  0.02645296    -0.09070
C526        C  0.39120339  0.64754226  0.04490221     0.29810
F527        F  0.41154760  0.67452565  0.07937187    -0.19590
H528        H  0.44403300  0.63113520  0.03906617     0.18170
H529        H  0.29905459  0.60367328  0.97848813     0.18180
F530        F  0.33574251  0.56805544  0.93583596    -0.19580
C531        C  0.35323544  0.71234443  0.16428109    -0.21020
C532        C  0.33282308  0.67247240  0.18812808    -0.09060
C533        C  0.31012037  0.63343958  0.16220257     0.29800
C534        C  0.31082121  0.63490312  0.11631021    -0.21020
C535        C  0.33191041  0.67502394  0.09293015    -0.09070
C536        C  0.35461549  0.71384994  0.11880903     0.29810
F537        F  0.38041789  0.75439995  0.10153773    -0.19590
H538        H  0.36910033  0.74411200  0.17990705     0.18170
H539        H  0.29378638  0.60391639  0.09865183     0.18180
F540        F  0.28423342  0.59340501  0.18082631    -0.19580
C541        C  0.83252048  0.17453057  0.04138678    -0.02200
C542        C  0.83307926  0.17203984  0.24009815    -0.02200
C543        C  0.66153782  0.33754318  0.73936338    -0.02200
C544        C  0.66318634  0.33965307  0.54069590    -0.02200
C545        C  0.50516907  0.01367552  0.05081764     0.42750
N546        N  0.97352494  0.48642495  0.99022644     0.01640
C547        C  0.58185582  0.47544068  0.80613337    -0.06240
H548        H  0.66163577  0.12878695  0.89132035     0.07130
C549        C  0.52320933  0.14059260  0.84272720    -0.06590
Co550      Co  0.53472041  0.47358113  0.93092874     0.74180
N551        N  0.60455560  0.06373134  0.90149588    -0.25770
Co552      Co  0.56377704  0.04706670  0.84666081     0.74070
C553        C  0.57093034  0.16874427  0.83209010     0.42850
N554        N  0.93856637  0.05388523  0.91269154     0.01250
N555        N  0.55878987  0.10429314  0.85084439     0.01360
N556        N  0.56308151  0.42761432  0.86178519    -0.46620
H557        H  0.56900882  0.01118530  0.03147838     0.07120
N558        N  0.59352950  0.03509266  0.93327359     0.01640
N559        N  0.52088118  0.02791993  0.79480064     0.01380
C560        C  0.99241846  0.50349377  0.73270424     0.42990
N561        N  0.92742598  0.02511252  0.94433514    -0.25220
C562        C  0.96942087  0.37289830  0.93989858    -0.06140
N563        N  0.96720256  0.00070018  0.02786665    -0.46330
N564        N  0.52901019  0.01531830  0.75726377    -0.46550
C565        C  0.92138290  0.34513004  0.94980750     0.42860
N566        N  0.55597583  0.46066981  0.87176709     0.01630
N567        N  0.88939220  0.45100183  0.88258050    -0.25250
N568        N  0.51315342  0.48878886  0.98747710    -0.25740
N569        N  0.90076412  0.47980578  0.85091907     0.01270
H570        H  0.83198342  0.38600260  0.89192897     0.07160
H571        H  0.92773930  0.50571509  0.74959134     0.07200
N572        N  0.56743367  0.48941742  0.84004929    -0.25790
N573        N  0.51882951  0.10144092  0.85312946    -0.25400
N574        N  0.93500782  0.41036617  0.93307090     0.01640
C575        C  0.65576093  0.09080339  0.95432205     0.43030
C576        C  0.91439137  0.03940060  0.97886608    -0.06650
N577        N  0.98117620  0.02550232  0.79644885    -0.25400
H578        H  0.49524716  0.14593563  0.83633396     0.07180
N579        N  0.62328697  0.04985867  0.96528576    -0.46620
H580        H  0.90208068  0.02207104  0.00920683     0.07170
C581        C  0.83841173  0.42475786  0.82912017     0.42870
C582        C  0.53542831  0.00503382  0.02457631    -0.06150
Co583      Co  0.93035979  0.46745909  0.93778556     0.73820
N584        N  0.93252722  0.08743720  0.92354105    -0.46340
C585        C  0.57864172  0.43436622  0.82043229     0.43130
N586        N  0.90254091  0.37085053  0.94509049    -0.46330
Co587      Co  0.95937600  0.04081101  0.85317858     0.73890
C588        C  0.96060287  0.01070664  0.75814959    -0.06660
C589        C  0.64372875  0.09996510  0.91155928    -0.06220
N590        N  0.97477868  0.41275017  0.93075568    -0.25750
N591        N  0.59054347  0.14369230  0.83758632    -0.46510
H592        H  0.59472063  0.49282502  0.77589256     0.07140
C593        C  0.85011955  0.41499480  0.87196523    -0.06630
Cl594      Cl  0.99706605  0.00721050  0.89213203    -0.49630
C595        C  0.91875935  0.08104047  0.96550299     0.42900
H596        H  0.99666915  0.36626613  0.94557138     0.07110
N597        N  0.87133259  0.46560357  0.81868525    -0.46340
C598        C  0.92125019  0.08507126  0.32734478     0.42750
N599        N  0.92684101  0.02996529  0.34979372     0.01640
C600        C  0.54089610  0.01185879  0.52269618    -0.06240
H601        H  0.63898141  0.14773237  0.44401174     0.07130
C602        C  0.61310088  0.03645840  0.30370093    -0.06590
Co603      Co  0.97035355  0.04452641  0.43623514     0.74180
N604        N  0.57017904  0.10052310  0.42864185    -0.25770
Co605      Co  0.56925924  0.04001884  0.42869715     0.74070
C606        C  0.65141155  0.07801252  0.31764106     0.42850
N607        N  0.49863230  0.48240913  0.29269945     0.01250
N608        N  0.60282715  0.05223937  0.36931282     0.01360
N609        N  0.97658473  0.01543489  0.52711861    -0.46620
H610        H  0.95531971  0.12510585  0.38970927     0.07120
N611        N  0.53246327  0.10222936  0.43111326     0.01640
N612        N  0.56652814  0.47888191  0.43134515     0.01380
C613        C  0.57296020  0.42379423  0.45259961     0.42990
N614        N  0.96111922  0.48433202  0.29504205    -0.25220
C615        C  0.88202128  0.47272067  0.47791399    -0.06140
N616        N  0.91191590  0.04378426  0.31735213    -0.46330
N617        N  0.58167632  0.46477873  0.46348281    -0.46550
C618        C  0.84406964  0.43062124  0.46497124     0.42760
N619        N  0.99557115  0.02736135  0.48855499     0.01630
N620        N  0.92354484  0.40932126  0.35221253    -0.25250
N621        N  0.94523929  0.05945254  0.38115415    -0.25740
N622        N  0.96113241  0.40741582  0.34985201     0.01270
H623        H  0.85476067  0.36289401  0.33625431     0.07160
H624        H  0.54007515  0.38475967  0.38969413     0.07200
N625        N  0.53311709  0.02561732  0.48532069    -0.25790
N626        N  0.58494471  0.02290824  0.33775182    -0.25400
N627        N  0.89098229  0.45692189  0.41190212     0.01640
C628        C  0.58446555  0.16811771  0.44803569     0.43030
C629        C  0.95538700  0.99997544  0.25758873    -0.06650
N630        N  0.54852293  0.44974493  0.39961535    -0.25400
H631        H  0.60822833  0.01841962  0.27367457     0.07180
N632        N  0.53954246  0.14163966  0.44330530    -0.46620
H633        H  0.92796622  0.00579730  0.25009524     0.07170
C634        C  0.90879160  0.34201037  0.33220772     0.42870
C635        C  0.94316797  0.09554769  0.37011497    -0.06150
Co636      Co  0.92440849  0.46937789  0.35209562     0.73820
N637        N  0.51966330  0.99641289  0.25538619    -0.46340
C638        C  0.00323875  0.50495866  0.54998584     0.43130
N639        N  0.85102816  0.42344223  0.42304840    -0.46330
Co640      Co  0.52345236  0.46492091  0.34479822     0.73890
C641        C  0.55140887  0.41389633  0.40979944    -0.06660
C642        C  0.60490607  0.14072903  0.43811385    -0.06220
N643        N  0.90924174  0.48642090  0.44328755    -0.25750
N644        N  0.64327749  0.08528537  0.35909429    -0.46510
H645        H  0.56894397  0.00674751  0.52936595     0.07140
C646        C  0.88863910  0.36944221  0.34242267    -0.06630
Cl647      Cl  0.99690192  0.00474105  0.39045758    -0.49630
C648        C  0.49483452  0.00865586  0.23187847     0.42900
H649        H  0.88752409  0.49071333  0.50807373     0.07110
N650        N  0.95375125  0.36804089  0.33728851    -0.46340
C651        C  0.95692989  0.47929405  0.61621013    -0.21020
C652        C  0.99947993  0.49821698  0.59641077    -0.09060
C653        C  0.53860495  0.01433774  0.62165839     0.29800
C654        C  0.53515631  0.01326914  0.66621791    -0.21020
C655        C  0.99298823  0.49711558  0.68623089    -0.09070
C656        C  0.95355979  0.47856767  0.66123230     0.29810
F657        F  0.91223767  0.46049689  0.68004936    -0.19590
H658        H  0.92656422  0.46627928  0.59681212     0.18170
H659        H  0.56604235  0.02775855  0.68493395     0.18180
F660        F  0.58045022  0.03478468  0.60380060    -0.19580
C661        C  0.54404751  0.52477020  0.12081474    -0.21020
C662        C  0.50972738  0.02534629  0.09670318    -0.09060
C663        C  0.97646117  0.03100202  0.11789175     0.29800
C664        C  0.97375393  0.02923949  0.16285595    -0.21020
C665        C  0.50436290  0.02218700  0.18667799    -0.09070
C666        C  0.54150914  0.52320830  0.16567153     0.29810
F667        F  0.57339343  0.51906620  0.18791340    -0.19590
H668        H  0.57098519  0.52204555  0.10525981     0.18170
H669        H  0.94604362  0.03049942  0.17853777     0.18180
F670        F  0.94475852  0.03508507  0.09526980    -0.19580
C671        C  0.67067236  0.27926633  0.49537583    -0.21020
C672        C  0.64409703  0.29178834  0.52104030    -0.09060
C673        C  0.59703478  0.26129910  0.52225583     0.29800
C674        C  0.57813128  0.22162531  0.49854598    -0.21020
C675        C  0.60512002  0.21035637  0.47301116    -0.09070
C676        C  0.65171479  0.23944682  0.47222962     0.29810
F677        F  0.67915379  0.23071247  0.44720591    -0.19590
H678        H  0.70616789  0.30064076  0.49028951     0.18170
H679        H  0.54201455  0.19972026  0.50006854     0.18180
F680        F  0.56881171  0.27082249  0.54506923    -0.19580
C681        C  0.61672166  0.38126979  0.54320153    -0.21020
C682        C  0.63379144  0.35776346  0.51968590    -0.09060
C683        C  0.62538881  0.35301836  0.47404425     0.29800
C684        C  0.60353334  0.37251409  0.45343456    -0.21020
C685        C  0.59035627  0.39869407  0.47656702    -0.09070
C686        C  0.59654460  0.40251887  0.52182621     0.29810
F687        F  0.58327260  0.42702224  0.54548316    -0.19590
H688        H  0.61989061  0.38481203  0.57796943     0.18170
H689        H  0.59945509  0.36921308  0.41853980     0.18180
F690        F  0.64148318  0.33233863  0.44818819    -0.19580
C691        C  0.72660440  0.40367482  0.49533732    -0.21020
C692        C  0.71354574  0.36964795  0.52649650    -0.09060
C693        C  0.74797881  0.36178459  0.54194552     0.29800
C694        C  0.79055299  0.38162520  0.52188450    -0.21020
C695        C  0.79990714  0.41001239  0.48662304    -0.09070
C696        C  0.76833432  0.42217552  0.47462916     0.29810
F697        F  0.77790226  0.45213983  0.44265962    -0.19590
H698        H  0.70466062  0.41579380  0.48519363     0.18170
H699        H  0.81572204  0.37375940  0.53299865     0.18180
F700        F  0.73924899  0.33194055  0.57377585    -0.19580
C701        C  0.62901176  0.22067003  0.77962189    -0.21020
C702        C  0.59078902  0.20943426  0.80530772    -0.09060
C703        C  0.57122643  0.23653712  0.80375338     0.29800
C704        C  0.59118966  0.27538166  0.77942799    -0.21020
C705        C  0.63229618  0.28943950  0.75686110    -0.09070
C706        C  0.64908924  0.25950085  0.75519918     0.29810
F707        F  0.68687976  0.26942855  0.73211340    -0.19590
H708        H  0.64395555  0.19966275  0.77885515     0.18170
H709        H  0.57480169  0.29502312  0.78007144     0.18180
F710        F  0.53378244  0.22678496  0.82724617    -0.19580
C711        C  0.59387005  0.40110844  0.75437968    -0.21020
C712        C  0.59934787  0.41078662  0.79892488    -0.09060
C713        C  0.62558998  0.39845295  0.82299162     0.29800
C714        C  0.64670251  0.37774015  0.80295590    -0.21020
C715        C  0.64175821  0.36670199  0.75803304    -0.09070
C716        C  0.61317863  0.37800046  0.73434483     0.29810
F717        F  0.60073359  0.36451419  0.69284584    -0.19590
H718        H  0.57279220  0.40969254  0.73537495     0.18170
H719        H  0.66575912  0.36948096  0.82444313     0.18180
F720        F  0.63160020  0.40701842  0.86625427    -0.19580
C721        C  0.75871280  0.36442431  0.82308122    -0.21020
C722        C  0.79616892  0.39931807  0.80376346    -0.09060
C723        C  0.79193006  0.41090710  0.76116430     0.29800
C724        C  0.75021201  0.38949859  0.73955723    -0.21020
C725        C  0.71054430  0.35634524  0.75979968    -0.09070
C726        C  0.71703877  0.34341429  0.80224709     0.29810
F727        F  0.68260291  0.31267570  0.82650300    -0.19590
H728        H  0.76082406  0.35443036  0.85574795     0.18170
H729        H  0.75038743  0.40019612  0.70709273     0.18180
F730        F  0.82810125  0.44344463  0.74022442    -0.19580
C731        C  0.68195722  0.37714595  0.66347541    -0.21020
C732        C  0.66163584  0.33714617  0.68738870    -0.09060
C733        C  0.63896404  0.29809018  0.66137157     0.29800
C734        C  0.64075347  0.29930808  0.61583223    -0.21020
C735        C  0.66147229  0.33904052  0.59214596    -0.09070
C736        C  0.68259829  0.37825794  0.61751789     0.29810
F737        F  0.70394356  0.41823596  0.59789639    -0.19590
H738        H  0.69625130  0.40839579  0.68061130     0.18170
H739        H  0.62469282  0.26769713  0.59969658     0.18180
F740        F  0.61247865  0.25756381  0.67841636    -0.19580
C741        C  0.74533100  0.13366699  0.23451145    -0.21020
C742        C  0.78414342  0.14201366  0.25866594    -0.09060
C743        C  0.77649612  0.12890641  0.30316724     0.29800
C744        C  0.73359525  0.10892736  0.32140065    -0.21020
C745        C  0.69612732  0.10016733  0.29679087    -0.09070
C746        C  0.70192249  0.11177192  0.25284098     0.29810
F747        F  0.66587945  0.10392586  0.22815125    -0.19590
H748        H  0.74818209  0.14535941  0.20166829     0.18170
H749        H  0.72967626  0.09999760  0.35540422     0.18180
F750        F  0.80982923  0.13664504  0.33109643    -0.19580
C751        C  0.82327214  0.23251232  0.28171466    -0.21020
C752        C  0.85097766  0.22014773  0.25794130    -0.09060
C753        C  0.89751104  0.25223719  0.25476329     0.29800
C754        C  0.91569456  0.29152511  0.27875132    -0.21020
C755        C  0.88830004  0.30105758  0.30558368    -0.09070
C756        C  0.84163461  0.27185605  0.30559172     0.29810
F757        F  0.81363325  0.28013082  0.33022798    -0.19590
H758        H  0.78718352  0.21135165  0.28369211     0.18170
H759        H  0.95165870  0.31413352  0.27695612     0.18180
F760        F  0.92619747  0.24368582  0.23149578    -0.19580
C761        C  0.86511509  0.11758022  0.23991318    -0.21020
C762        C  0.86446891  0.15441675  0.25864060    -0.09060
C763        C  0.88962116  0.17084838  0.29834596     0.29800
C764        C  0.90995154  0.14959993  0.31845290    -0.21020
C765        C  0.90602860  0.11087830  0.30139010    -0.09070
C766        C  0.88490229  0.09590956  0.26092222     0.29810
F767        F  0.88218348  0.05949159  0.24184310    -0.19590
H768        H  0.84996116  0.10410900  0.20920828     0.18170
H769        H  0.92617591  0.16218088  0.34947414     0.18180
F770        F  0.88946362  0.20334199  0.32262269    -0.19580
C771        C  0.73807009  0.14347680  0.95524328    -0.21020
C772        C  0.69874928  0.11629814  0.97818827    -0.09060
C773        C  0.70161232  0.11163769  0.02314329     0.29800
C774        C  0.74354614  0.13276249  0.04433118    -0.21020
C775        C  0.78427440  0.15678844  0.02083359    -0.09070
C776        C  0.77996357  0.16286018  0.97557704     0.29810
F777        F  0.81660206  0.18430204  0.94950103    -0.19590
H778        H  0.73688719  0.14754763  0.92056327     0.18170
H779        H  0.74313426  0.12872123  0.07891732     0.18180
F780        F  0.66381447  0.08633277  0.04670878    -0.19580
C781        C  0.92018414  0.27653055  0.97364795    -0.21020
C782        C  0.90060873  0.30336036  0.97481635    -0.09060
C783        C  0.86233950  0.29052689  0.00099764     0.29800
C784        C  0.84377402  0.25115999  0.02450217    -0.21020
C785        C  0.86172143  0.22224719  0.02216162    -0.09070
C786        C  0.90133646  0.23666766  0.99620390     0.29810
F787        F  0.92172652  0.21246018  0.98963365    -0.19590
H788        H  0.94973569  0.28570320  0.95379690     0.18170
H789        H  0.81372747  0.24206959  0.04355761     0.18180
F790        F  0.84253733  0.31584366  0.00401046    -0.19580
C791        C  0.91290385  0.12660637  0.02532670    -0.21020
C792        C  0.89586589  0.10207049  0.98701885    -0.09060
C793        C  0.85447860  0.09431829  0.97116997     0.29800
C794        C  0.83168059  0.11311320  0.99165942    -0.21020
C795        C  0.85136080  0.14377341  0.02644486    -0.09070
C796        C  0.89121737  0.14753833  0.04488659     0.29810
F797        F  0.91156611  0.17451717  0.07935799    -0.19590
H798        H  0.94404196  0.13112550  0.03903907     0.18170
H799        H  0.79906424  0.10368355  0.97847834     0.18180
F800        F  0.83574433  0.06806653  0.93581309    -0.19580
C801        C  0.85327133  0.21233872  0.16428571    -0.21020
C802        C  0.83285434  0.17246640  0.18813200    -0.09060
C803        C  0.81015092  0.13343403  0.16220593     0.29800
C804        C  0.81084764  0.13489862  0.11631337    -0.21020
C805        C  0.83193446  0.17502004  0.09293414    -0.09070
C806        C  0.85464731  0.21384497  0.11881362     0.29810
F807        F  0.88045382  0.25439445  0.10154252    -0.19590
H808        H  0.86914226  0.24410599  0.17991207     0.18170
H809        H  0.79381084  0.10391236  0.09865442     0.18180
F810        F  0.78426699  0.09339905  0.18082989    -0.19580
C811        C  0.83250553  0.67453189  0.04138325    -0.02200
C812        C  0.83305694  0.67204698  0.24009422    -0.02200
C813        C  0.66154322  0.83753979  0.73935856    -0.02200
C814        C  0.66320492  0.83965100  0.54069154    -0.02200
C815        C  0.50519274  0.51368313  0.05081747     0.42750
N816        N  0.97351827  0.98642184  0.99021901     0.01640
C817        C  0.58189187  0.97545602  0.80614988    -0.06240
H818        H  0.66162558  0.62877740  0.89129986     0.07130
C819        C  0.52320456  0.64059689  0.84273610    -0.06590
Co820      Co  0.53473066  0.97358675  0.93093664     0.74180
N821        N  0.60454598  0.56372180  0.90147968    -0.25770
Co822      Co  0.56375587  0.54705856  0.84665390     0.74070
C823        C  0.57092415  0.66874220  0.83208801     0.42850
N824        N  0.93856645  0.55389341  0.91271576     0.01250
N825        N  0.55877812  0.60428965  0.85084438     0.01360
N826        N  0.56310982  0.92762625  0.86179989    -0.46620
H827        H  0.56902342  0.51118363  0.03146388     0.07120
N828        N  0.59352299  0.53508397  0.93325763     0.01640
N829        N  0.52084871  0.52791500  0.79480399     0.01380
C830        C  0.99245594  0.00347474  0.73270274     0.42990
N831        N  0.92742774  0.52511968  0.94435808    -0.25220
C832        C  0.96943236  0.87290044  0.93990213    -0.06140
N833        N  0.96722092  0.50070918  0.02787571    -0.46330
N834        N  0.52897270  0.51532241  0.75726011    -0.46550
C835        C  0.92139170  0.84513016  0.94980036     0.42860
N836        N  0.55600138  0.96068058  0.87178005     0.01630
N837        N  0.88940598  0.95099484  0.88255842    -0.25250
N838        N  0.51314924  0.98879015  0.98747906    -0.25740
N839        N  0.90078042  0.97979674  0.85089487     0.01270
H840        H  0.83199524  0.88599815  0.89191044     0.07160
H841        H  0.92776725  0.00568551  0.74957737     0.07200
N842        N  0.56746327  0.98942971  0.84006297    -0.25790
N843        N  0.51882095  0.60144370  0.85313927    -0.25400
N844        N  0.93501857  0.91036592  0.93306037     0.01640
C845        C  0.65575724  0.59079420  0.95429987     0.43030
C846        C  0.91439592  0.53940742  0.97889143    -0.06650
N847        N  0.98114776  0.52550561  0.79646078    -0.25400
H848        H  0.49524386  0.64594367  0.83634846     0.07180
N849        N  0.62328397  0.54985042  0.96526656    -0.46620
H850        H  0.90208562  0.52207624  0.00923148     0.07170
C851        C  0.83842767  0.92474813  0.82909689     0.42870
C852        C  0.53544215  0.50503405  0.02456943    -0.06150
Co853      Co  0.93036438  0.96745504  0.93776938     0.73820
N854        N  0.93252766  0.58744482  0.92356814    -0.46340
C855        C  0.57867693  0.93438169  0.82044918     0.43130
N856        N  0.90254976  0.87084943  0.94507469    -0.46330
Co857      Co  0.95936278  0.54081699  0.85319706     0.73890
C858        C  0.96057086  0.51072342  0.75816110    -0.06660
C859        C  0.64372129  0.59995517  0.91153886    -0.06220
N860        N  0.97479100  0.91275222  0.93075577    -0.25750
N861        N  0.59053249  0.64368551  0.83757979    -0.46510
H862        H  0.59475918  0.99284118  0.77590988     0.07140
C863        C  0.85013372  0.91498763  0.87194368    -0.06630
Cl864      Cl  0.99705373  0.50720966  0.89213710    -0.49630
C865        C  0.91876278  0.58104781  0.96553093     0.42900
H866        H  0.99667990  0.86626908  0.94558328     0.07110
N867        N  0.87134969  0.96559308  0.81866017    -0.46340
C868        C  0.92124434  0.58507840  0.32731154     0.42750
N869        N  0.92683303  0.52997204  0.34976257     0.01640
C870        C  0.54083496  0.51185228  0.52270109    -0.06240
H871        H  0.63895767  0.64771466  0.44402165     0.07130
C872        C  0.61309049  0.53644403  0.30372086    -0.06590
Co873      Co  0.97032682  0.54453100  0.43621275     0.74180
N874        N  0.57015553  0.60051548  0.42864059    -0.25770
Co875      Co  0.56922554  0.54000694  0.42870609     0.74070
C876        C  0.65139979  0.57799724  0.31766451     0.42850
N877        N  0.49863679  0.98241481  0.29270121     0.01250
N878        N  0.60280859  0.55222445  0.36933025     0.01360
N879        N  0.97653160  0.51544527  0.52710329    -0.46620
H880        H  0.95530593  0.62511070  0.38967930     0.07120
N881        N  0.53244357  0.60222975  0.43110143     0.01640
N882        N  0.56657060  0.97889737  0.43132664     0.01380
C883        C  0.57301041  0.92381281  0.45257544     0.42990
N884        N  0.96112144  0.98433258  0.29505518    -0.25220
C885        C  0.88205882  0.97270656  0.47794837    -0.06140
N886        N  0.91191010  0.54379117  0.31731918    -0.46330
N887        N  0.58172566  0.96479639  0.46346010    -0.46550
C888        C  0.84410695  0.93060553  0.46500728     0.42760
N889        N  0.99552514  0.52736108  0.48854159     0.01630
N890        N  0.92356827  0.90932341  0.35222674    -0.25250
N891        N  0.94522872  0.55945937  0.38112332    -0.25740
N892        N  0.96115633  0.90742016  0.34985168     0.01270
H893        H  0.85478069  0.86289715  0.33628341     0.07160
H894        H  0.54011532  0.88477465  0.38967440     0.07200
N895        N  0.53306751  0.52560894  0.48531934    -0.25790
N896        N  0.58492958  0.52289428  0.33776808    -0.25400
N897        N  0.89101178  0.95691384  0.41193203     0.01640
C898        C  0.58445230  0.66811432  0.44802853     0.43030
C899        C  0.95539828  0.49998012  0.25757305    -0.06650
N900        N  0.54856060  0.94975909  0.39959826    -0.25400
H901        H  0.60822039  0.51840698  0.27369379     0.07180
N902        N  0.53952865  0.64164308  0.44329081    -0.46620
H903        H  0.92798282  0.50580755  0.25007144     0.07170
C904        C  0.90881117  0.84201499  0.33221110     0.42870
C905        C  0.94315915  0.59555459  0.37008273    -0.06150
Co906      Co  0.92442485  0.96937534  0.35211836     0.73820
N907        N  0.51966986  0.49640812  0.25538958    -0.46340
C908        C  0.00330142  0.00495196  0.54999116     0.43130
N909        N  0.85106101  0.92343143  0.42308162    -0.46330
Co910      Co  0.52347297  0.96493035  0.34479008     0.73890
C911        C  0.55145209  0.91391246  0.40977863    -0.06660
C912        C  0.60488585  0.64071812  0.43811565    -0.06220
N913        N  0.90927418  0.98641128  0.44331816    -0.25750
N914        N  0.64326069  0.58527049  0.35911593    -0.46510
H915        H  0.56888054  0.50674139  0.52938668     0.07140
C916        C  0.88866069  0.86944488  0.34244121    -0.06630
Cl917      Cl  0.99687754  0.50473760  0.39045043    -0.49630
C918        C  0.49485134  0.50865738  0.23187390     0.42900
H919        H  0.88756404  0.99069789  0.50810934     0.07110
N920        N  0.95377274  0.86804622  0.33728028    -0.46340
C921        C  0.95697593  0.97929397  0.61620549    -0.21020
C922        C  0.99952639  0.99816445  0.59641215    -0.09060
C923        C  0.53857135  0.51447576  0.62164909     0.29800
C924        C  0.53513206  0.51341297  0.66620795    -0.21020
C925        C  0.99301874  0.99705323  0.68623373    -0.09070
C926        C  0.95359743  0.97856252  0.66122673     0.29810
F927        F  0.91227443  0.96055405  0.68003299    -0.19590
H928        H  0.92661749  0.96633524  0.59680379     0.18170
H929        H  0.56602330  0.52795866  0.68491852     0.18180
F930        F  0.58041142  0.53498888  0.60378025    -0.19580
C931        C  0.54403059  0.02479497  0.12081663    -0.21020
C932        C  0.50976227  0.52535647  0.09670200    -0.09060
C933        C  0.97651738  0.53104548  0.11789070     0.29800
C934        C  0.97380749  0.52928055  0.16285446    -0.21020
C935        C  0.50439274  0.52219203  0.18667554    -0.09070
C936        C  0.54149479  0.02323580  0.16567361     0.29810
F937        F  0.57340133  0.01913113  0.18791628    -0.19590
H938        H  0.57098489  0.02209854  0.10526237     0.18170
H939        H  0.94611181  0.53056732  0.17853656     0.18180
F940        F  0.94483578  0.53516314  0.09526857    -0.19580
C941        C  0.67067430  0.77925735  0.49536729    -0.21020
C942        C  0.64410552  0.79178606  0.52103326    -0.09060
C943        C  0.59704106  0.76130508  0.52224715     0.29800
C944        C  0.57812978  0.72163099  0.49853675    -0.21020
C945        C  0.60511273  0.71035422  0.47300251    -0.09070
C946        C  0.65170911  0.73943783  0.47222059     0.29810
F947        F  0.67914259  0.73069691  0.44719562    -0.19590
H948        H  0.70617035  0.80062740  0.49027910     0.18170
H949        H  0.54201199  0.69973169  0.50005889     0.18180
F950        F  0.56882387  0.77083674  0.54506019    -0.19580
C951        C  0.61674267  0.88127024  0.54318590    -0.21020
C952        C  0.63382460  0.85777308  0.51967322    -0.09060
C953        C  0.62544406  0.85304305  0.47402787     0.29800
C954        C  0.60359482  0.87254222  0.45341272    -0.21020
C955        C  0.59040348  0.89871140  0.47654434    -0.09070
C956        C  0.59657309  0.90252383  0.52180598     0.29810
F957        F  0.58328806  0.92701791  0.54546108    -0.19590
H958        H  0.61989543  0.88480073  0.57795557     0.18170
H959        H  0.59953113  0.86925174  0.41851616     0.18180
F960        F  0.64155118  0.83237171  0.44817614    -0.19580
C961        C  0.72664769  0.90368473  0.49536490    -0.21020
C962        C  0.71356946  0.86963762  0.52650408    -0.09060
C963        C  0.74798925  0.86175337  0.54195070     0.29800
C964        C  0.79056868  0.88159251  0.52189987    -0.21020
C965        C  0.79994220  0.91000243  0.48665471    -0.09070
C966        C  0.76838365  0.92218705  0.47466845     0.29810
F967        F  0.77797066  0.95217222  0.44271594    -0.19590
H968        H  0.70471459  0.91581908  0.48522834     0.18170
H969        H  0.81572644  0.87370882  0.53300886     0.18180
F970        F  0.73924062  0.83189122  0.57376710    -0.19580
C971        C  0.62900617  0.72066311  0.77961679    -0.21020
C972        C  0.59078414  0.70943075  0.80530286    -0.09060
C973        C  0.57122481  0.73653637  0.80374691     0.29800
C974        C  0.59119138  0.77538066  0.77942117    -0.21020
C975        C  0.63229862  0.78943620  0.75685625    -0.09070
C976        C  0.64908700  0.75949389  0.75519378     0.29810
F977        F  0.68687658  0.76941811  0.73210801    -0.19590
H978        H  0.64394731  0.69965354  0.77885059     0.18170
H979        H  0.57480520  0.79502383  0.78006243     0.18180
F980        F  0.53378071  0.72678720  0.82723804    -0.19580
C981        C  0.59390151  0.90113022  0.75438949    -0.21020
C982        C  0.59937426  0.91079582  0.79893738    -0.09060
C983        C  0.62560297  0.89844387  0.82300162     0.29800
C984        C  0.64670846  0.87772658  0.80296072    -0.21020
C985        C  0.64176965  0.86670169  0.75803464    -0.09070
C986        C  0.61320218  0.87801766  0.73434896     0.29810
F987        F  0.60075925  0.86454320  0.69284709    -0.19590
H988        H  0.57283313  0.90972786  0.73538642     0.18170
H989        H  0.66575368  0.86945132  0.82444631     0.18180
F990        F  0.63160690  0.90699556  0.86626678    -0.19580
C991        C  0.75872689  0.86441645  0.82306462    -0.21020
C992        C  0.79618178  0.89930958  0.80374424    -0.09060
C993        C  0.79193891  0.91089859  0.76114655     0.29800
C994        C  0.75021830  0.88949159  0.73954412    -0.21020
C995        C  0.71055173  0.85633914  0.75978955    -0.09070
C996        C  0.71705053  0.84340714  0.80223465     0.29810
F997        F  0.68261803  0.81266564  0.82649153    -0.19590
H998        H  0.76084128  0.85442138  0.85572993     0.18170
H999        H  0.75039177  0.90018956  0.70708042     0.18180
F1000       F  0.82810865  0.94343462  0.74020358    -0.19580
C1001       C  0.68196170  0.87714240  0.66347028    -0.21020
C1002       C  0.66163754  0.83714274  0.68738368    -0.09060
C1003       C  0.63896467  0.79808689  0.66136635     0.29800
C1004       C  0.64075794  0.79930459  0.61582686    -0.21020
C1005       C  0.66148212  0.83903715  0.59214098    -0.09070
C1006       C  0.68260659  0.87825443  0.61751298     0.29810
F1007       F  0.70395476  0.91823243  0.59789162    -0.19590
H1008       H  0.69625632  0.90839241  0.68060598     0.18170
H1009       H  0.62469725  0.76769389  0.59969047     0.18180
F1010       F  0.61247622  0.75756112  0.67841109    -0.19580
C1011       C  0.74530491  0.63365989  0.23452148    -0.21020
C1012       C  0.78412475  0.64202475  0.25867279    -0.09060
C1013       C  0.77648829  0.62893333  0.30317877     0.29800
C1014       C  0.73358963  0.60894629  0.32141816    -0.21020
C1015       C  0.69611370  0.60016361  0.29681019    -0.09070
C1016       C  0.70189939  0.61175754  0.25285733     0.29810
F1017       F  0.66584896  0.60389297  0.22816988    -0.19590
H1018       H  0.74814666  0.64534178  0.20167522     0.18170
H1019       H  0.72967887  0.60002814  0.35542466     0.18180
F1020       F  0.80983085  0.63669929  0.33110654    -0.19580
C1021       C  0.82326916  0.73252511  0.28172098    -0.21020
C1022       C  0.85096487  0.72015642  0.25793672    -0.09060
C1023       C  0.89749859  0.75224259  0.25474755     0.29800
C1024       C  0.91569321  0.79152961  0.27873835    -0.21020
C1025       C  0.88830938  0.80106375  0.30558460    -0.09070
C1026       C  0.84164269  0.77186649  0.30560237     0.29810
F1027       F  0.81365073  0.78014258  0.33025230    -0.19590
H1028       H  0.78718023  0.71136832  0.28370453     0.18170
H1029       H  0.95165747  0.81413521  0.27693504     0.18180
F1030       F  0.92617528  0.74368736  0.23146778    -0.19580
C1031       C  0.86508434  0.61757961  0.23989940    -0.21020
C1032       C  0.86444655  0.65441996  0.25862840    -0.09060
C1033       C  0.88961104  0.67085441  0.29832693     0.29800
C1034       C  0.90994573  0.64960668  0.31842596    -0.21020
C1035       C  0.90601583  0.61088263  0.30136237    -0.09070
C1036       C  0.88487639  0.59590965  0.26090090     0.29810
F1037       F  0.88214956  0.55948849  0.24182113    -0.19590
H1038       H  0.84992166  0.60410508  0.20919880     0.18170
H1039       H  0.92618133  0.66219191  0.34944187     0.18180
F1040       F  0.88946802  0.70335471  0.32260435    -0.19580
C1041       C  0.73806681  0.64346664  0.95522416    -0.21020
C1042       C  0.69874332  0.61629283  0.97816778    -0.09060
C1043       C  0.70160071  0.61164055  0.02312492     0.29800
C1044       C  0.74353172  0.63276805  0.04431705    -0.21020
C1045       C  0.78426279  0.65678807  0.02082241    -0.09070
C1046       C  0.77995804  0.66285275  0.97556299     0.29810
F1047       F  0.81660034  0.68429065  0.94949083    -0.19590
H1048       H  0.73688736  0.64753122  0.92054254     0.18170
H1049       H  0.74311549  0.62873345  0.07890451     0.18180
F1050       F  0.66379975  0.58634126  0.04668857    -0.19580
C1051       C  0.92018511  0.77652935  0.97365000    -0.21020
C1052       C  0.90061082  0.80336015  0.97480885    -0.09060
C1053       C  0.86233444  0.79052670  0.00097963     0.29800
C1054       C  0.84376232  0.75115989  0.02448468    -0.21020
C1055       C  0.86171008  0.72224701  0.02215550    -0.09070
C1056       C  0.90133039  0.73666600  0.99620586     0.29810
F1057       F  0.92171960  0.71245675  0.98964300    -0.19590
H1058       H  0.94974128  0.78570150  0.95380624     0.18170
H1059       H  0.81371128  0.74207031  0.04353246     0.18180
F1060       F  0.84253177  0.81584366  0.00398202    -0.19580
C1061       C  0.91289441  0.62661106  0.02535010    -0.21020
C1062       C  0.89586089  0.60207077  0.98704402    -0.09060
C1063       C  0.85447272  0.59431193  0.97119073     0.29800
C1064       C  0.83167083  0.61310691  0.99167223    -0.21020
C1065       C  0.85134814  0.64377349  0.02645297    -0.09070
C1066       C  0.89120341  0.64754228  0.04490220     0.29810
F1067       F  0.91154763  0.67452570  0.07937184    -0.19590
H1068       H  0.94403304  0.63113524  0.03906614     0.18170
H1069       H  0.79905456  0.60367322  0.97848819     0.18180
F1070       F  0.83574248  0.56805538  0.93583601    -0.19580
C1071       C  0.85323545  0.71234443  0.16428108    -0.21020
C1072       C  0.83282307  0.67247240  0.18812808    -0.09060
C1073       C  0.81012036  0.63343958  0.16220257     0.29800
C1074       C  0.81082121  0.63490312  0.11631021    -0.21020
C1075       C  0.83191041  0.67502394  0.09293015    -0.09070
C1076       C  0.85461549  0.71384994  0.11880902     0.29810
F1077       F  0.88041790  0.75439994  0.10153773    -0.19590
H1078       H  0.86910034  0.74411200  0.17990704     0.18170
H1079       H  0.79378637  0.60391639  0.09865183     0.18180
F1080       F  0.78423342  0.59340501  0.18082631    -0.19580
loop_ 
_geom_bond_atom_site_label_1 
_geom_bond_atom_site_label_2 
_geom_bond_distance 
_geom_bond_site_symmetry_2 
_ccdc_geom_bond_type 
C1          C235   1.579       .  S
C1          C245   1.575       .  S
C1          C255   1.568       .  S
C1          C265   1.589       .  S
C2          C202   1.575       .  S
C2          C212   1.570       .  S
C2          C222   1.589       .  S
C2          C262   1.602       .  S
C3          C165   1.565       .  S
C3          C175   1.580       .  S
C3          C185   1.595       .  S
C3          C192   1.602       .  S
C4          C132   1.578       .  S
C4          C142   1.573       .  S
C4          C152   1.568       .  S
C4          C195   1.587       .  S
C5           C42   1.454       .  S
C5          C122   1.456       .  S
C5          N563   1.345   1_455  A
N6          Co43   2.065       .  S
N6          N293   1.318   1_556  A
N6          N568   1.318       .  A
C7           C45   1.455       .  S
C7           N32   1.342       .  A
C7           H52   1.082       .  S
H8           C49   1.082       .  S
C9           C13   1.463       .  S
C9           N33   1.341       .  A
C9           H38   1.080   1_455  S
Co10         N28   2.056       .  S
Co10         N26   2.087       .  S
Co10        N288   2.089       .  S
Co10        N590   2.093   1_455  S
Co10       Cl864   2.451   1_455  S
N11          C49   1.343       .  A
N11         Co12   2.083       .  S
N11          N18   1.318       .  A
Co12         N15   2.091       .  S
Co12         N19   2.045       .  S
Co12        N302   2.086   1_545  S
Co12       Cl594   2.438   1_455  S
C13         C162   1.488       .  S
C13          N51   1.353       .  A
N14         Co47   2.092       .  S
N14          N21   1.318       .  A
N14          N44   1.327       .  A
N15          N33   1.321       .  A
N15          N51   1.326       .  A
N16          C45   1.355       .  A
N16          N26   1.326       .  A
H17          C42   1.079       .  S
N18        Co280   2.089   1_545  S
N18          N39   1.325       .  A
N19          N24   1.312       .  A
N19         N577   1.318   1_455  A
C20         C115   1.450       .  S
C20         C318   1.458       .  S
C20         N834   1.340       .  A
N21          C36   1.337       .  A
N21        Co313   2.073   1_545  S
C22          C25   1.465       .  S
C22          N50   1.342       .  A
C22          H56   1.081       .  S
N23         C545   1.345       .  A
N23         N276   1.318   1_544  A
N24         C830   1.340   1_455  A
C25         C242   1.486       .  S
C25          N46   1.349       .  A
N26          N32   1.318       .  A
N27          C53   1.345       .  A
N27         Co43   2.096       .  S
N27          N29   1.318       .  A
N28         C312   1.333   1_556  A
N28         N546   1.318   1_455  A
N29        Co317   2.076       .  S
N29          N57   1.323       .  A
H30          C53   1.082       .  S
H31         C318   1.080       .  S
N32        Co282   2.086       .  S
N33        Co587   2.082   1_455  S
N34         Co43   2.081       .  S
N34          N46   1.324       .  A
N34          N50   1.322       .  A
C35          C49   1.467       .  S
C35         C232   1.481       .  S
C35          N39   1.348       .  A
C36          C55   1.449       .  S
C36          H40   1.081   1_556  S
N37          C48   1.339       .  A
N37         Co47   2.066       .  S
N37         N559   1.318       .  A
C41          C53   1.472       .  S
C41         C182   1.486       .  S
C41          N57   1.346       .  A
C42         N298   1.333   1_544  A
Co43        N291   2.073       .  S
Co43       Cl324   2.440       .  S
N44          C55   1.356       .  A
C45         C172   1.478       .  S
Co47        N299   2.076   1_545  S
Co47        N573   2.082       .  S
Co47        Cl54   2.453       .  S
C48         C290   1.458       .  S
C48         H301   1.080       .  S
N50        Co550   2.093       .  S
Cl54       Co820   2.451   1_545  S
Cl54       Co552   2.438       .  S
Cl54       Co313   2.440   1_545  S
C55         C252   1.466       .  S
C58          C95   1.471       .  S
C58         C225   1.485       .  S
C58          N76   1.346       .  A
N59        Co366   2.078   1_545  S
N59          N76   1.323       .  A
N59          N81   1.318       .  A
C60         C908   1.450       .  S
C60          N85   1.329       .  A
C60         H105   1.080       .  S
H61         C102   1.080       .  S
C62          C66   1.453       .  S
C62          N86   1.340       .  A
C62          H91   1.081       .  S
Co63         N81   2.089       .  S
Co63         N79   2.060       .  S
Co63        N611   2.083       .  S
Co63        N373   2.077   1_545  S
Co63       Cl107   2.440       .  S
N64         C102   1.344       .  A
N64         Co65   2.097       .  S
N64          N71   1.322       .  A
Co65         N68   2.087       .  S
Co65         N85   2.049       .  S
Co65        N342   2.092   1_545  S
Co65       Cl647   2.449   1_455  S
C66         C205   1.473       .  S
C66         N104   1.355       .  A
N67        Co100   2.053   1_655  S
N67         N614   1.318       .  A
N67         N367   1.315   1_655  A
N68          N86   1.318       .  A
N68         N104   1.326       .  A
N69         C368   1.344       .  A
N69          N79   1.319       .  A
H70          C95   1.081       .  S
N71        Co603   2.083   1_455  S
N71          N92   1.325       .  A
N72        Co335   2.092       .  S
N72          N90   1.318       .  A
N72          N77   1.326       .  A
C73         C101   1.467       .  S
C73         C145   1.483       .  S
C73          N77   1.349       .  A
N74         C359   1.337       .  A
N74         Co96   2.069       .  S
N74         N607   1.318       .  A
C75          C78   1.450       .  S
C75         N103   1.338       .  A
C75         H109   1.081       .  S
C78         C155   1.469       .  S
C78          N99   1.357       .  A
N79         N625   1.318       .  A
N80         C106   1.341       .  A
N80         Co96   2.083       .  S
N80          N82   1.321       .  A
N81          C95   1.343       .  A
N82        Co640   2.084       .  S
N82         N110   1.324       .  A
H83         C106   1.080       .  S
H84         C101   1.082       .  S
N85         N619   1.318   1_455  A
N86        Co370   2.082   1_545  S
N87         Co96   2.095       .  S
N87          N99   1.328       .  A
N87         N103   1.318       .  A
C88         C102   1.468       .  S
C88         C135   1.490       .  S
C88          N92   1.350       .  A
C89         C648   1.458   1_565  S
C89         N344   1.337       .  A
C89          H93   1.079   1_565  S
N90         C101   1.343       .  A
N90        Co100   2.085       .  S
C94         C106   1.463       .  S
C94         C215   1.483       .  S
C94         N110   1.350       .  A
Co96        N329   2.078       .  S
Co96       Cl377   2.454       .  S
N97         C108   1.341   1_465  A
N97         N337   1.315   1_455  A
C98         C112   1.447       .  S
C98         C870   1.450       .  S
C98         N339   1.344       .  A
Co100       N622   2.084   1_455  S
Co100       N356   2.082       .  S
Co100      Cl917   2.440   1_455  S
N103       Co333   2.077       .  S
Cl107      Co605   2.449       .  S
Cl107      Co366   2.454   1_545  S
Cl107      Co910   2.440   1_545  S
C108        C125   1.457   1_655  S
C108        C629   1.458   1_545  S
C111        H118   1.084       .  S
C111        C112   1.402       .  A
C111        C116   1.391       .  A
C112        C923   1.401       .  A
C113        C114   1.377       .  A
C113        C922   1.401   1_445  A
C113        F120   1.357       .  S
C114        H119   1.083       .  S
C114        C925   1.401   1_445  A
C115        C116   1.401       .  A
C115        C924   1.400       .  A
C116        F117   1.357       .  S
C121        H128   1.081       .  S
C121        C126   1.385       .  A
C121        C392   1.399       .  A
C122        C391   1.399       .  A
C122        C663   1.404   1_455  A
C123        C124   1.388       .  A
C123        C662   1.404       .  A
C123        F130   1.358       .  S
C124        H129   1.081       .  S
C124        C665   1.400       .  A
C125        C664   1.400   1_455  A
C125        C396   1.406       .  A
C126        C395   1.406       .  A
C126        F127   1.358       .  S
C131        H138   1.074       .  S
C131        C132   1.423       .  A
C131        C136   1.398       .  A
C132        C133   1.421       .  A
C133        C134   1.403       .  A
C133        F140   1.358       .  S
C134        H139   1.083       .  S
C134        C135   1.405       .  A
C135        C136   1.400       .  A
C136        F137   1.357       .  S
C141        H148   1.078       .  S
C141        C142   1.415       .  A
C141        C146   1.407       .  A
C142        C143   1.429       .  A
C143        C144   1.394       .  A
C143        F150   1.357       .  S
C144        H149   1.083       .  S
C144        C145   1.394       .  A
C145        C146   1.407       .  A
C146        F147   1.357       .  S
C151        H158   1.077       .  S
C151        C152   1.421       .  A
C151        C156   1.393       .  A
C152        C153   1.420       .  A
C153        C154   1.405       .  A
C153        F160   1.357       .  S
C154        H159   1.083       .  S
C154        C155   1.402       .  A
C155        C156   1.394       .  A
C156        F157   1.358       .  S
C161        H168   1.082       .  S
C161        C162   1.405       .  A
C161        C166   1.401       .  A
C162        C163   1.405       .  A
C163        C164   1.399       .  A
C163        F170   1.356       .  S
C164        H169   1.080       .  S
C164        C165   1.417       .  A
C165        C166   1.421       .  A
C166        F167   1.358       .  S
C171        H178   1.083       .  S
C171        C172   1.402       .  A
C171        C176   1.409       .  A
C172        C173   1.391       .  A
C173        C174   1.390       .  A
C173        F180   1.358       .  S
C174        H179   1.068       .  S
C174        C175   1.423       .  A
C175        C176   1.427       .  A
C176        F177   1.355       .  S
C181        H188   1.083       .  S
C181        C182   1.390       .  A
C181        C186   1.394       .  A
C182        C183   1.406       .  A
C183        C184   1.406       .  A
C183        F190   1.358       .  S
C184        H189   1.070       .  S
C184        C185   1.418       .  A
C185        C186   1.441       .  A
C186        F187   1.358       .  S
C191        H198   1.083       .  S
C191        C192   1.422       .  A
C191        C196   1.417       .  A
C192        C193   1.429       .  A
C193        C194   1.405       .  A
C193        F200   1.353       .  S
C194        H199   1.076       .  S
C194        C195   1.412       .  A
C195        C196   1.419       .  A
C196        F197   1.358       .  S
C201        H208   1.080       .  S
C201        C202   1.422       .  A
C201        C206   1.406       .  A
C202        C203   1.431       .  A
C203        C204   1.391       .  A
C203        F210   1.346       .  S
C204        H209   1.084       .  S
C204        C205   1.388       .  A
C205        C206   1.402       .  A
C206        F207   1.357       .  S
C211        H218   1.079       .  S
C211        C212   1.420       .  A
C211        C216   1.398       .  A
C212        C213   1.422       .  A
C213        C214   1.399       .  A
C213        F220   1.359       .  S
C214        H219   1.083       .  S
C214        C215   1.403       .  A
C215        C216   1.402       .  A
C216        F217   1.357       .  S
C221        H228   1.068       .  S
C221        C222   1.416       .  A
C221        C226   1.404       .  A
C222        C223   1.440       .  A
C223        C224   1.393       .  A
C223        F230   1.357       .  S
C224        H229   1.082       .  S
C224        C225   1.390       .  A
C225        C226   1.405       .  A
C226        F227   1.358       .  S
C231        H238   1.083       .  S
C231        C232   1.393       .  A
C231        C236   1.393       .  A
C232        C233   1.406   1_556  A
C233        C234   1.405       .  A
C233        F240   1.358       .  S
C234        H239   1.076       .  S
C234        C235   1.416       .  A
C235        C236   1.432   1_554  A
C236        F237   1.357       .  S
C241        H248   1.083       .  S
C241        C242   1.396       .  A
C241        C246   1.398       .  A
C242        C243   1.406   1_556  A
C243        C244   1.400       .  A
C243        F250   1.357       .  S
C244        H249   1.083       .  S
C244        C245   1.419       .  A
C245        C246   1.430   1_554  A
C246        F247   1.350       .  S
C251        H258   1.083       .  S
C251        C252   1.401   1_554  A
C251        C256   1.405       .  A
C252        C253   1.392       .  A
C253        C254   1.391       .  A
C253        F260   1.359       .  S
C254        H259   1.074       .  S
C254        C255   1.422   1_556  A
C255        C256   1.423       .  A
C256        F257   1.357       .  S
C261        H268   1.074       .  S
C261        C262   1.418       .  A
C261        C266   1.403       .  A
C262        C263   1.427       .  A
C263        C264   1.416       .  A
C263        F270   1.358       .  S
C264        H269   1.083       .  S
C264        C265   1.417       .  A
C265        C266   1.421       .  A
C266        F267   1.353       .  S
C271        C505   1.579       .  S
C271        C515   1.575       .  S
C271        C525   1.568       .  S
C271        C535   1.589       .  S
C272        C472   1.575       .  S
C272        C482   1.570       .  S
C272        C492   1.589       .  S
C272        C532   1.602       .  S
C273        C435   1.566       .  S
C273        C445   1.580       .  S
C273        C455   1.595       .  S
C273        C462   1.602       .  S
C274        C402   1.578       .  S
C274        C412   1.573       .  S
C274        C422   1.568       .  S
C274        C465   1.587       .  S
C275        C312   1.454       .  S
C275        C392   1.456       .  S
C275        N833   1.345   1_455  A
N276       Co313   2.065       .  S
N276        N838   1.318       .  A
C277        C315   1.455       .  S
C277        N302   1.342       .  A
C277        H322   1.082       .  S
H278        C319   1.082       .  S
C279        C283   1.463       .  S
C279        N303   1.341       .  A
C279        H308   1.080   1_455  S
Co280       N298   2.056       .  S
Co280       N860   2.093   1_455  S
Co280       N296   2.087       .  S
Co280      Cl594   2.451   1_465  S
N281        C319   1.343       .  A
N281       Co282   2.083       .  S
N281        N288   1.318       .  A
Co282       N285   2.091       .  S
Co282       N289   2.045       .  S
Co282      Cl864   2.438   1_455  S
C283        C432   1.488       .  S
C283        N321   1.353       .  A
N284       Co317   2.092       .  S
N284        N291   1.318       .  A
N284        N314   1.327       .  A
N285        N303   1.321       .  A
N285        N321   1.326       .  A
N286        C315   1.355       .  A
N286        N296   1.326       .  A
H287        C312   1.079       .  S
N288        N309   1.325       .  A
N289        N847   1.318   1_455  A
N289        N294   1.312       .  A
C290        C385   1.450   1_545  S
C290        N564   1.340       .  A
N291        C306   1.337       .  A
C292        C295   1.465       .  S
C292        N320   1.342       .  A
C292        H326   1.081       .  S
N293        C815   1.345       .  A
N294        C560   1.340   1_455  A
C295        C512   1.486       .  S
C295        N316   1.349       .  A
N296        N302   1.318       .  A
N297        C323   1.345       .  A
N297       Co313   2.096       .  S
N297        N299   1.318       .  A
N298        N816   1.318   1_455  A
N299        N327   1.323       .  A
H300        C323   1.082       .  S
N303       Co857   2.082   1_455  S
N304       Co313   2.081       .  S
N304        N316   1.324       .  A
N304        N320   1.322       .  A
C305        C319   1.467       .  S
C305        C502   1.481       .  S
C305        N309   1.348       .  A
C306        C325   1.449       .  S
C306        H310   1.081   1_556  S
N307        C318   1.339       .  A
N307       Co317   2.066       .  S
N307        N829   1.318       .  A
C311        C323   1.472       .  S
C311        C452   1.486       .  S
C311        N327   1.346       .  A
N314        C325   1.356       .  A
C315        C442   1.478       .  S
Co317       N843   2.082       .  S
Co317      Cl324   2.453       .  S
N320       Co820   2.093       .  S
Cl324      Co550   2.451       .  S
Cl324      Co822   2.438       .  S
C325        C522   1.466       .  S
C328        C365   1.471       .  S
C328        C495   1.485       .  S
C328        N346   1.346       .  A
N329        N346   1.323       .  A
N329        N351   1.318       .  A
C330        C638   1.450       .  S
C330        N355   1.329       .  A
C330        H375   1.080       .  S
H331        C372   1.080       .  S
C332        C336   1.453       .  S
C332        N356   1.340       .  A
C332        H361   1.081       .  S
Co333       N351   2.089       .  S
Co333       N881   2.083       .  S
Co333       N349   2.060       .  S
Co333      Cl377   2.440       .  S
N334        C372   1.344       .  A
N334       Co335   2.097       .  S
N334        N341   1.322       .  A
Co335       N338   2.087       .  S
Co335       N355   2.049       .  S
Co335      Cl917   2.449   1_455  S
C336        C475   1.473       .  S
C336        N374   1.355       .  A
N337       Co370   2.053   1_655  S
N337        N884   1.318       .  A
N338        N356   1.318       .  A
N338        N374   1.326       .  A
N339        N349   1.319       .  A
H340        C365   1.081       .  S
N341       Co873   2.083   1_455  S
N341        N362   1.325       .  A
N342        N360   1.318       .  A
N342        N347   1.326       .  A
C343        C371   1.467       .  S
C343        C415   1.483       .  S
C343        N347   1.349       .  A
N344       Co366   2.069       .  S
N344        N877   1.318       .  A
C345        C348   1.450       .  S
C345        N373   1.338       .  A
C345        H379   1.081       .  S
C348        C425   1.469       .  S
C348        N369   1.357       .  A
N349        N895   1.318       .  A
N350        C376   1.341       .  A
N350       Co366   2.083       .  S
N350        N352   1.321       .  A
N351        C365   1.343       .  A
N352       Co910   2.084       .  S
N352        N380   1.324       .  A
H353        C376   1.080       .  S
H354        C371   1.082       .  S
N355        N889   1.318   1_455  A
N357       Co366   2.095       .  S
N357        N369   1.328       .  A
N357        N373   1.318       .  A
C358        C372   1.468       .  S
C358        C405   1.490       .  S
C358        N362   1.350       .  A
C359        C918   1.458       .  S
C359        H363   1.079       .  S
N360        C371   1.343       .  A
N360       Co370   2.086       .  S
C364        C376   1.463       .  S
C364        C485   1.483       .  S
C364        N380   1.350       .  A
N367        C378   1.341   1_455  A
C368        C600   1.450       .  S
C368        C382   1.447   1_545  S
Co370       N892   2.084   1_455  S
Co370      Cl647   2.440   1_465  S
Cl377      Co875   2.449       .  S
Cl377      Co640   2.440       .  S
C378        C899   1.458       .  S
C378        C395   1.457   1_655  S
C381        H388   1.084       .  S
C381        C382   1.402       .  A
C381        C386   1.391       .  A
C382        C653   1.401   1_565  A
C383        C652   1.401   1_455  A
C383        C384   1.377       .  A
C383        F390   1.357       .  S
C384        H389   1.083       .  S
C384        C655   1.400   1_455  A
C385        C654   1.401   1_565  A
C385        C386   1.401       .  A
C386        F387   1.357       .  S
C391        H398   1.081       .  S
C391        C396   1.385       .  A
C392        C933   1.404   1_455  A
C393        C932   1.404       .  A
C393        C394   1.388       .  A
C393        F400   1.358       .  S
C394        H399   1.081       .  S
C394        C935   1.400       .  A
C395        C934   1.400   1_455  A
C396        F397   1.358       .  S
C401        H408   1.074       .  S
C401        C402   1.423       .  A
C401        C406   1.398       .  A
C402        C403   1.421       .  A
C403        C404   1.403       .  A
C403        F410   1.358       .  S
C404        H409   1.083       .  S
C404        C405   1.405       .  A
C405        C406   1.400       .  A
C406        F407   1.357       .  S
C411        H418   1.078       .  S
C411        C412   1.415       .  A
C411        C416   1.407       .  A
C412        C413   1.429       .  A
C413        C414   1.394       .  A
C413        F420   1.357       .  S
C414        H419   1.083       .  S
C414        C415   1.394       .  A
C415        C416   1.407       .  A
C416        F417   1.357       .  S
C421        H428   1.077       .  S
C421        C422   1.421       .  A
C421        C426   1.393       .  A
C422        C423   1.420       .  A
C423        C424   1.405       .  A
C423        F430   1.357       .  S
C424        H429   1.083       .  S
C424        C425   1.402       .  A
C425        C426   1.394       .  A
C426        F427   1.358       .  S
C431        H438   1.082       .  S
C431        C432   1.405       .  A
C431        C436   1.401       .  A
C432        C433   1.405       .  A
C433        C434   1.399       .  A
C433        F440   1.356       .  S
C434        H439   1.080       .  S
C434        C435   1.417       .  A
C435        C436   1.421       .  A
C436        F437   1.358       .  S
C441        H448   1.083       .  S
C441        C442   1.402       .  A
C441        C446   1.409       .  A
C442        C443   1.391       .  A
C443        C444   1.390       .  A
C443        F450   1.358       .  S
C444        H449   1.068       .  S
C444        C445   1.423       .  A
C445        C446   1.427       .  A
C446        F447   1.355       .  S
C451        H458   1.083       .  S
C451        C452   1.390       .  A
C451        C456   1.394       .  A
C452        C453   1.406       .  A
C453        C454   1.406       .  A
C453        F460   1.358       .  S
C454        H459   1.070       .  S
C454        C455   1.418       .  A
C455        C456   1.441       .  A
C456        F457   1.358       .  S
C461        H468   1.083       .  S
C461        C462   1.422       .  A
C461        C466   1.417       .  A
C462        C463   1.429       .  A
C463        C464   1.405       .  A
C463        F470   1.353       .  S
C464        H469   1.076       .  S
C464        C465   1.412       .  A
C465        C466   1.419       .  A
C466        F467   1.358       .  S
C471        H478   1.080       .  S
C471        C472   1.422       .  A
C471        C476   1.406       .  A
C472        C473   1.431       .  A
C473        C474   1.391       .  A
C473        F480   1.346       .  S
C474        H479   1.084       .  S
C474        C475   1.388       .  A
C475        C476   1.402       .  A
C476        F477   1.357       .  S
C481        H488   1.079       .  S
C481        C482   1.419       .  A
C481        C486   1.398       .  A
C482        C483   1.422       .  A
C483        C484   1.399       .  A
C483        F490   1.359       .  S
C484        H489   1.083       .  S
C484        C485   1.403       .  A
C485        C486   1.402       .  A
C486        F487   1.357       .  S
C491        H498   1.068       .  S
C491        C492   1.416       .  A
C491        C496   1.404       .  A
C492        C493   1.440       .  A
C493        C494   1.393       .  A
C493        F500   1.357       .  S
C494        H499   1.082       .  S
C494        C495   1.390       .  A
C495        C496   1.405       .  A
C496        F497   1.358       .  S
C501        H508   1.083       .  S
C501        C502   1.393       .  A
C501        C506   1.393       .  A
C502        C503   1.406   1_556  A
C503        C504   1.405       .  A
C503        F510   1.358       .  S
C504        H509   1.076       .  S
C504        C505   1.416       .  A
C505        C506   1.432   1_554  A
C506        F507   1.357       .  S
C511        H518   1.083       .  S
C511        C512   1.396       .  A
C511        C516   1.398       .  A
C512        C513   1.406   1_556  A
C513        C514   1.400       .  A
C513        F520   1.357       .  S
C514        H519   1.083       .  S
C514        C515   1.419       .  A
C515        C516   1.430   1_554  A
C516        F517   1.350       .  S
C521        H528   1.083       .  S
C521        C522   1.401   1_554  A
C521        C526   1.405       .  A
C522        C523   1.392       .  A
C523        C524   1.391       .  A
C523        F530   1.359       .  S
C524        H529   1.074       .  S
C524        C525   1.422   1_556  A
C525        C526   1.423       .  A
C526        F527   1.357       .  S
C531        H538   1.074       .  S
C531        C532   1.418       .  A
C531        C536   1.403       .  A
C532        C533   1.427       .  A
C533        C534   1.416       .  A
C533        F540   1.358       .  S
C534        H539   1.083       .  S
C534        C535   1.417       .  A
C535        C536   1.421       .  A
C536        F537   1.353       .  S
C541        C775   1.579       .  S
C541        C785   1.575       .  S
C541        C795   1.568       .  S
C541        C805   1.589       .  S
C542        C742   1.575       .  S
C542        C752   1.570       .  S
C542        C762   1.589       .  S
C542        C802   1.602       .  S
C543        C705   1.565       .  S
C543        C715   1.580       .  S
C543        C725   1.595       .  S
C543        C732   1.602       .  S
C544        C672   1.578       .  S
C544        C682   1.573       .  S
C544        C692   1.568       .  S
C544        C735   1.587       .  S
C545        C582   1.454       .  S
C545        C662   1.456       .  S
N546       Co583   2.065       .  S
N546        N833   1.318   1_556  A
C547        C585   1.455       .  S
C547        N572   1.342       .  A
C547        H592   1.082       .  S
H548        C589   1.082       .  S
C549        C553   1.463       .  S
C549        N573   1.341       .  A
C549        H578   1.080       .  S
Co550       N568   2.056       .  S
Co550       N828   2.089       .  S
Co550       N566   2.087       .  S
N551        C589   1.343       .  A
N551       Co552   2.083       .  S
N551        N558   1.318       .  A
Co552       N555   2.091       .  S
Co552       N842   2.086   1_545  S
Co552       N559   2.045       .  S
C553        C702   1.488       .  S
C553        N591   1.353       .  A
N554       Co587   2.092       .  S
N554        N561   1.318       .  A
N554        N584   1.327       .  A
N555        N573   1.321       .  A
N555        N591   1.326       .  A
N556        C585   1.355       .  A
N556        N566   1.326       .  A
H557        C582   1.079       .  S
N558       Co820   2.089   1_545  S
N558        N579   1.325       .  A
N559        N564   1.312       .  A
C560        C858   1.458       .  S
C560        C655   1.450       .  S
N561        C576   1.337       .  A
N561       Co853   2.073   1_545  S
C562        C565   1.465       .  S
C562        N590   1.342       .  A
C562        H596   1.081       .  S
N563        N816   1.318   1_544  A
C565        C782   1.486       .  S
C565        N586   1.349       .  A
N566        N572   1.318       .  A
N567        C593   1.345       .  A
N567       Co583   2.096       .  S
N567        N569   1.318       .  A
N568        C852   1.333   1_556  A
N569       Co857   2.076       .  S
N569        N597   1.323       .  A
H570        C593   1.082       .  S
H571        C858   1.080       .  S
N572       Co822   2.086       .  S
N574       Co583   2.081       .  S
N574        N586   1.324       .  A
N574        N590   1.322       .  A
C575        C589   1.467       .  S
C575        C772   1.481       .  S
C575        N579   1.348       .  A
C576        C595   1.449       .  S
C576        H580   1.081   1_556  S
N577        C588   1.339       .  A
N577       Co587   2.066       .  S
C581        C593   1.472       .  S
C581        C722   1.486       .  S
C581        N597   1.346       .  A
C582        N838   1.333   1_544  A
Co583       N831   2.073       .  S
Co583      Cl864   2.440       .  S
N584        C595   1.356       .  A
C585        C712   1.478       .  S
Co587       N839   2.076   1_545  S
Co587      Cl594   2.453       .  S
C588        C830   1.458       .  S
C588        H841   1.080       .  S
Cl594      Co853   2.440   1_545  S
C595        C792   1.466       .  S
C598        C635   1.471       .  S
C598        C765   1.485       .  S
C598        N616   1.346       .  A
N599       Co906   2.078   1_545  S
N599        N616   1.323       .  A
N599        N621   1.318       .  A
C600        N625   1.329       .  A
C600        H645   1.080       .  S
H601        C642   1.080       .  S
C602        C606   1.453       .  S
C602        N626   1.340       .  A
C602        H631   1.081       .  S
Co603       N621   2.089       .  S
Co603       N913   2.077   1_545  S
Co603       N619   2.060       .  S
Co603      Cl647   2.440       .  S
N604        C642   1.344       .  A
N604       Co605   2.097       .  S
N604        N611   1.322       .  A
Co605       N608   2.087       .  S
Co605       N625   2.049       .  S
Co605       N882   2.092   1_545  S
C606        C745   1.473       .  S
C606        N644   1.355       .  A
N607       Co640   2.053       .  S
N607        N907   1.315       .  A
N608        N626   1.318       .  A
N608        N644   1.326       .  A
N609        C908   1.344   1_655  A
N609        N619   1.319       .  A
H610        C635   1.081       .  S
N611        N632   1.325       .  A
N612       Co875   2.092       .  S
N612        N630   1.318       .  A
N612        N617   1.326       .  A
C613        C641   1.467       .  S
C613        C685   1.483       .  S
C613        N617   1.349       .  A
N614        C899   1.337       .  A
N614       Co636   2.069       .  S
C615        C618   1.450       .  S
C615        N643   1.338       .  A
C615        H649   1.081       .  S
C618        C695   1.469       .  S
C618        N639   1.357       .  A
N620        C646   1.341       .  A
N620       Co636   2.083       .  S
N620        N622   1.321       .  A
N621        C635   1.343       .  A
N622        N650   1.324       .  A
H623        C646   1.080       .  S
H624        C641   1.082       .  S
N626       Co910   2.082   1_545  S
N627       Co636   2.095       .  S
N627        N639   1.328       .  A
N627        N643   1.318       .  A
C628        C642   1.468       .  S
C628        C675   1.490       .  S
C628        N632   1.350       .  A
C629        N884   1.337       .  A
C629        H633   1.079   1_565  S
N630        C641   1.343       .  A
N630       Co640   2.085       .  S
C634        C646   1.463       .  S
C634        C755   1.483       .  S
C634        N650   1.350       .  A
Co636       N869   2.078       .  S
Co636      Cl917   2.454       .  S
N637        C648   1.341   1_565  A
N637        N877   1.315       .  A
C638        C652   1.447   1_455  S
C638        N879   1.344   1_455  A
Co640       N896   2.082       .  S
N643       Co873   2.077       .  S
Cl647      Co906   2.454   1_545  S
C648        C665   1.457       .  S
C651        H658   1.084       .  S
C651        C652   1.402       .  A
C651        C656   1.391       .  A
C653        C654   1.377       .  A
C653        F660   1.357       .  S
C654        H659   1.083       .  S
C655        C656   1.401       .  A
C656        F657   1.357       .  S
C661        H668   1.081       .  S
C661        C932   1.399       .  A
C661        C666   1.385       .  A
C662        C931   1.399       .  A
C663        C664   1.388       .  A
C663        F670   1.358       .  S
C664        H669   1.081       .  S
C665        C936   1.406       .  A
C666        C935   1.406       .  A
C666        F667   1.358       .  S
C671        H678   1.074       .  S
C671        C672   1.423       .  A
C671        C676   1.398       .  A
C672        C673   1.421       .  A
C673        C674   1.403       .  A
C673        F680   1.358       .  S
C674        H679   1.083       .  S
C674        C675   1.405       .  A
C675        C676   1.400       .  A
C676        F677   1.357       .  S
C681        H688   1.078       .  S
C681        C682   1.415       .  A
C681        C686   1.407       .  A
C682        C683   1.429       .  A
C683        C684   1.394       .  A
C683        F690   1.357       .  S
C684        H689   1.083       .  S
C684        C685   1.394       .  A
C685        C686   1.407       .  A
C686        F687   1.357       .  S
C691        H698   1.077       .  S
C691        C692   1.421       .  A
C691        C696   1.393       .  A
C692        C693   1.420       .  A
C693        C694   1.405       .  A
C693        F700   1.357       .  S
C694        H699   1.083       .  S
C694        C695   1.402       .  A
C695        C696   1.394       .  A
C696        F697   1.358       .  S
C701        H708   1.082       .  S
C701        C702   1.405       .  A
C701        C706   1.401       .  A
C702        C703   1.405       .  A
C703        C704   1.399       .  A
C703        F710   1.356       .  S
C704        H709   1.080       .  S
C704        C705   1.417       .  A
C705        C706   1.421       .  A
C706        F707   1.358       .  S
C711        H718   1.083       .  S
C711        C712   1.402       .  A
C711        C716   1.409       .  A
C712        C713   1.391       .  A
C713        C714   1.390       .  A
C713        F720   1.358       .  S
C714        H719   1.068       .  S
C714        C715   1.423       .  A
C715        C716   1.427       .  A
C716        F717   1.355       .  S
C721        H728   1.083       .  S
C721        C722   1.390       .  A
C721        C726   1.394       .  A
C722        C723   1.406       .  A
C723        C724   1.406       .  A
C723        F730   1.358       .  S
C724        H729   1.070       .  S
C724        C725   1.418       .  A
C725        C726   1.441       .  A
C726        F727   1.358       .  S
C731        H738   1.083       .  S
C731        C732   1.422       .  A
C731        C736   1.417       .  A
C732        C733   1.429       .  A
C733        C734   1.405       .  A
C733        F740   1.353       .  S
C734        H739   1.076       .  S
C734        C735   1.412       .  A
C735        C736   1.419       .  A
C736        F737   1.358       .  S
C741        H748   1.080       .  S
C741        C742   1.422       .  A
C741        C746   1.406       .  A
C742        C743   1.431       .  A
C743        C744   1.391       .  A
C743        F750   1.346       .  S
C744        H749   1.084       .  S
C744        C745   1.388       .  A
C745        C746   1.402       .  A
C746        F747   1.357       .  S
C751        H758   1.079       .  S
C751        C752   1.420       .  A
C751        C756   1.398       .  A
C752        C753   1.422       .  A
C753        C754   1.399       .  A
C753        F760   1.359       .  S
C754        H759   1.083       .  S
C754        C755   1.403       .  A
C755        C756   1.402       .  A
C756        F757   1.357       .  S
C761        H768   1.068       .  S
C761        C762   1.416       .  A
C761        C766   1.404       .  A
C762        C763   1.440       .  A
C763        C764   1.393       .  A
C763        F770   1.357       .  S
C764        H769   1.082       .  S
C764        C765   1.390       .  A
C765        C766   1.405       .  A
C766        F767   1.358       .  S
C771        H778   1.083       .  S
C771        C772   1.393       .  A
C771        C776   1.393       .  A
C772        C773   1.406   1_556  A
C773        C774   1.405       .  A
C773        F780   1.358       .  S
C774        H779   1.076       .  S
C774        C775   1.416       .  A
C775        C776   1.432   1_554  A
C776        F777   1.357       .  S
C781        H788   1.083       .  S
C781        C782   1.396       .  A
C781        C786   1.398       .  A
C782        C783   1.406   1_556  A
C783        C784   1.400       .  A
C783        F790   1.357       .  S
C784        H789   1.083       .  S
C784        C785   1.419       .  A
C785        C786   1.430   1_554  A
C786        F787   1.350       .  S
C791        H798   1.083       .  S
C791        C792   1.401   1_554  A
C791        C796   1.405       .  A
C792        C793   1.392       .  A
C793        C794   1.391       .  A
C793        F800   1.359       .  S
C794        H799   1.074       .  S
C794        C795   1.422   1_556  A
C795        C796   1.423       .  A
C796        F797   1.357       .  S
C801        H808   1.074       .  S
C801        C802   1.418       .  A
C801        C806   1.403       .  A
C802        C803   1.427       .  A
C803        C804   1.416       .  A
C803        F810   1.358       .  S
C804        H809   1.083       .  S
C804        C805   1.417       .  A
C805        C806   1.421       .  A
C806        F807   1.353       .  S
C811       C1045   1.579       .  S
C811       C1055   1.575       .  S
C811       C1065   1.568       .  S
C811       C1075   1.589       .  S
C812       C1012   1.575       .  S
C812       C1022   1.570       .  S
C812       C1032   1.589       .  S
C812       C1072   1.602       .  S
C813        C975   1.566       .  S
C813        C985   1.580       .  S
C813        C995   1.595       .  S
C813       C1002   1.602       .  S
C814        C942   1.578       .  S
C814        C952   1.573       .  S
C814        C962   1.568       .  S
C814       C1005   1.587       .  S
C815        C852   1.454       .  S
C815        C932   1.456       .  S
N816       Co853   2.065       .  S
C817        C855   1.455       .  S
C817        N842   1.342       .  A
C817        H862   1.082       .  S
H818        C859   1.082       .  S
C819        C823   1.463       .  S
C819        N843   1.341       .  A
C819        H848   1.080       .  S
Co820       N838   2.056       .  S
Co820       N836   2.087       .  S
N821        C859   1.343       .  A
N821       Co822   2.083       .  S
N821        N828   1.318       .  A
Co822       N825   2.091       .  S
Co822       N829   2.045       .  S
C823        C972   1.488       .  S
C823        N861   1.353       .  A
N824       Co857   2.092       .  S
N824        N831   1.318       .  A
N824        N854   1.327       .  A
N825        N843   1.321       .  A
N825        N861   1.326       .  A
N826        C855   1.355       .  A
N826        N836   1.326       .  A
H827        C852   1.079       .  S
N828        N849   1.325       .  A
N829        N834   1.312       .  A
C830        C925   1.450   1_545  S
N831        C846   1.337       .  A
C832        C835   1.465       .  S
C832        N860   1.342       .  A
C832        H866   1.081       .  S
C835       C1052   1.486       .  S
C835        N856   1.349       .  A
N836        N842   1.318       .  A
N837        C863   1.345       .  A
N837       Co853   2.096       .  S
N837        N839   1.318       .  A
N839        N867   1.323       .  A
H840        C863   1.082       .  S
N844       Co853   2.081       .  S
N844        N856   1.324       .  A
N844        N860   1.322       .  A
C845        C859   1.467       .  S
C845       C1042   1.481       .  S
C845        N849   1.348       .  A
C846        C865   1.449       .  S
C846        H850   1.081   1_556  S
N847        C858   1.339       .  A
N847       Co857   2.066       .  S
C851        C863   1.472       .  S
C851        C992   1.486       .  S
C851        N867   1.346       .  A
N854        C865   1.356       .  A
C855        C982   1.478       .  S
Co857      Cl864   2.453       .  S
C865       C1062   1.466       .  S
C868        C905   1.471       .  S
C868       C1035   1.485       .  S
C868        N886   1.346       .  A
N869        N886   1.323       .  A
N869        N891   1.318       .  A
C870        N895   1.329       .  A
C870        H915   1.080       .  S
H871        C912   1.080       .  S
C872        C876   1.453       .  S
C872        N896   1.340       .  A
C872        H901   1.081       .  S
Co873       N891   2.089       .  S
Co873       N889   2.060       .  S
Co873      Cl917   2.440       .  S
N874        C912   1.344       .  A
N874       Co875   2.097       .  S
N874        N881   1.322       .  A
Co875       N878   2.087       .  S
Co875       N895   2.049       .  S
C876       C1015   1.473       .  S
C876        N914   1.355       .  A
N877       Co910   2.053       .  S
N878        N896   1.318       .  A
N878        N914   1.326       .  A
N879        N889   1.319       .  A
H880        C905   1.081       .  S
N881        N902   1.325       .  A
N882        N900   1.318       .  A
N882        N887   1.326       .  A
C883        C911   1.467       .  S
C883        C955   1.483       .  S
C883        N887   1.349       .  A
N884       Co906   2.069       .  S
C885        C888   1.450       .  S
C885        N913   1.338       .  A
C885        H919   1.081       .  S
C888        C965   1.469       .  S
C888        N909   1.357       .  A
N890        C916   1.341       .  A
N890       Co906   2.083       .  S
N890        N892   1.321       .  A
N891        C905   1.343       .  A
N892        N920   1.324       .  A
H893        C916   1.080       .  S
H894        C911   1.082       .  S
N897       Co906   2.095       .  S
N897        N909   1.328       .  A
N897        N913   1.318       .  A
C898        C912   1.468       .  S
C898        C945   1.490       .  S
C898        N902   1.350       .  A
C899        H903   1.079       .  S
N900        C911   1.343       .  A
N900       Co910   2.086       .  S
C904        C916   1.463       .  S
C904       C1025   1.483       .  S
C904        N920   1.350       .  A
N907        C918   1.341       .  A
C908        C922   1.447   1_445  S
C918        C935   1.457       .  S
C921        H928   1.084       .  S
C921        C922   1.402       .  A
C921        C926   1.391       .  A
C923        C924   1.377       .  A
C923        F930   1.357       .  S
C924        H929   1.083       .  S
C925        C926   1.401       .  A
C926        F927   1.357       .  S
C931        H938   1.081       .  S
C931        C936   1.385       .  A
C933        C934   1.388       .  A
C933        F940   1.358       .  S
C934        H939   1.081       .  S
C936        F937   1.358       .  S
C941        H948   1.074       .  S
C941        C942   1.423       .  A
C941        C946   1.398       .  A
C942        C943   1.421       .  A
C943        C944   1.403       .  A
C943        F950   1.358       .  S
C944        H949   1.083       .  S
C944        C945   1.405       .  A
C945        C946   1.400       .  A
C946        F947   1.357       .  S
C951        H958   1.078       .  S
C951        C952   1.415       .  A
C951        C956   1.407       .  A
C952        C953   1.429       .  A
C953        C954   1.394       .  A
C953        F960   1.357       .  S
C954        H959   1.083       .  S
C954        C955   1.394       .  A
C955        C956   1.407       .  A
C956        F957   1.357       .  S
C961        H968   1.077       .  S
C961        C962   1.421       .  A
C961        C966   1.393       .  A
C962        C963   1.420       .  A
C963        C964   1.405       .  A
C963        F970   1.357       .  S
C964        H969   1.083       .  S
C964        C965   1.402       .  A
C965        C966   1.394       .  A
C966        F967   1.358       .  S
C971        H978   1.082       .  S
C971        C972   1.405       .  A
C971        C976   1.401       .  A
C972        C973   1.405       .  A
C973        C974   1.399       .  A
C973        F980   1.356       .  S
C974        H979   1.080       .  S
C974        C975   1.417       .  A
C975        C976   1.421       .  A
C976        F977   1.358       .  S
C981        H988   1.083       .  S
C981        C982   1.402       .  A
C981        C986   1.409       .  A
C982        C983   1.391       .  A
C983        C984   1.390       .  A
C983        F990   1.358       .  S
C984        H989   1.068       .  S
C984        C985   1.423       .  A
C985        C986   1.427       .  A
C986        F987   1.355       .  S
C991        H998   1.083       .  S
C991        C992   1.390       .  A
C991        C996   1.394       .  A
C992        C993   1.406       .  A
C993        C994   1.406       .  A
C993       F1000   1.358       .  S
C994        H999   1.070       .  S
C994        C995   1.418       .  A
C995        C996   1.441       .  A
C996        F997   1.358       .  S
C1001      H1008   1.083       .  S
C1001      C1002   1.422       .  A
C1001      C1006   1.417       .  A
C1002      C1003   1.429       .  A
C1003      C1004   1.405       .  A
C1003      F1010   1.353       .  S
C1004      H1009   1.076       .  S
C1004      C1005   1.412       .  A
C1005      C1006   1.419       .  A
C1006      F1007   1.358       .  S
C1011      H1018   1.080       .  S
C1011      C1012   1.422       .  A
C1011      C1016   1.406       .  A
C1012      C1013   1.431       .  A
C1013      C1014   1.391       .  A
C1013      F1020   1.346       .  S
C1014      H1019   1.084       .  S
C1014      C1015   1.388       .  A
C1015      C1016   1.402       .  A
C1016      F1017   1.357       .  S
C1021      H1028   1.079       .  S
C1021      C1022   1.419       .  A
C1021      C1026   1.398       .  A
C1022      C1023   1.422       .  A
C1023      C1024   1.399       .  A
C1023      F1030   1.359       .  S
C1024      H1029   1.083       .  S
C1024      C1025   1.403       .  A
C1025      C1026   1.402       .  A
C1026      F1027   1.357       .  S
C1031      H1038   1.068       .  S
C1031      C1032   1.416       .  A
C1031      C1036   1.404       .  A
C1032      C1033   1.440       .  A
C1033      C1034   1.393       .  A
C1033      F1040   1.357       .  S
C1034      H1039   1.082       .  S
C1034      C1035   1.390       .  A
C1035      C1036   1.405       .  A
C1036      F1037   1.358       .  S
C1041      H1048   1.083       .  S
C1041      C1042   1.393       .  A
C1041      C1046   1.393       .  A
C1042      C1043   1.406   1_556  A
C1043      C1044   1.405       .  A
C1043      F1050   1.358       .  S
C1044      H1049   1.076       .  S
C1044      C1045   1.416       .  A
C1045      C1046   1.432   1_554  A
C1046      F1047   1.357       .  S
C1051      H1058   1.083       .  S
C1051      C1052   1.396       .  A
C1051      C1056   1.398       .  A
C1052      C1053   1.406   1_556  A
C1053      C1054   1.400       .  A
C1053      F1060   1.357       .  S
C1054      H1059   1.083       .  S
C1054      C1055   1.419       .  A
C1055      C1056   1.430   1_554  A
C1056      F1057   1.350       .  S
C1061      H1068   1.083       .  S
C1061      C1062   1.401   1_554  A
C1061      C1066   1.405       .  A
C1062      C1063   1.392       .  A
C1063      C1064   1.391       .  A
C1063      F1070   1.359       .  S
C1064      H1069   1.074       .  S
C1064      C1065   1.422   1_556  A
C1065      C1066   1.423       .  A
C1066      F1067   1.357       .  S
C1071      H1078   1.074       .  S
C1071      C1072   1.418       .  A
C1071      C1076   1.403       .  A
C1072      C1073   1.427       .  A
C1073      C1074   1.416       .  A
C1073      F1080   1.358       .  S
C1074      H1079   1.083       .  S
C1074      C1075   1.417       .  A
C1075      C1076   1.421       .  A
C1076      F1077   1.353       .  S
