geometry optimzed in LAMMPS
_audit_creation_date              2020-11-30 
_audit_creation_method            'lammps2cif' 
_symmetry_space_group_name_H-M    'P1' 
_symmetry_Int_Tables_number       1 
_symmetry_cell_setting            triclinic 
loop_ 
_symmetry_equiv_pos_as_xyz 
  x,y,z 
_cell_length_a                    30.854759325407013 
_cell_length_b                    30.732632792017043 
_cell_length_c                    32.44296186450253 
_cell_angle_alpha                 89.51312007894192 
_cell_angle_beta                  93.58315125920478 
_cell_angle_gamma                 119.54416749239554 
loop_ 
_atom_site_label 
_atom_site_type_symbol 
_atom_site_fract_x 
_atom_site_fract_y 
_atom_site_fract_z 
_atom_site_charge 
N1          N  0.89509415  0.97256864  0.94518401    -0.07160
N2          N  0.84606712  0.95238968  0.94093636    -0.59280
N3          N  0.00341503  0.02903077  0.90076538    -0.06840
N4          N  0.02044821  0.04865423  0.86495659    -0.61410
N5          N  0.98207647  0.97982838  0.89837332    -0.06440
N6          N  0.98433807  0.96544221  0.86061787    -0.59260
N7          N  0.91646742  0.02175041  0.94745662    -0.06120
N8          N  0.88201727  0.03561294  0.94459455    -0.61760
C9          C  0.83808120  0.99188226  0.94065515     0.95010
C10         C  0.00887097  0.00879200  0.84016650     0.94790
N11         N  0.10573938  0.11509068  0.99849462    -0.07350
N12         N  0.15352964  0.14968407  0.99929659    -0.59860
N13         N  0.99580387  0.11012419  0.00924692    -0.05470
N14         N  0.98218773  0.14476977  0.00924822    -0.61110
N15         N  0.02024977  0.11176251  0.04450845    -0.07380
N16         N  0.02407963  0.14812168  0.06886555    -0.60130
N17         N  0.08246910  0.11596218  0.96329730    -0.05110
N18         N  0.11413829  0.15163756  0.93974236    -0.61200
Mn19       Mn  0.99916820  0.06954562  0.95460957     1.18440
C20         C  0.15863697  0.17183654  0.96225344     0.97100
C21         C  0.99936190  0.16785155  0.04677720     0.97760
N22         N  0.98157650  0.89189321  0.95603182    -0.07400
N23         N  0.97842445  0.85527918  0.93231051    -0.63710
N24         N  0.91717459  0.88715640  0.03680692    -0.06200
N25         N  0.88560096  0.85110731  0.06005707    -0.64380
N26         N  0.89460176  0.88684461  0.00090445    -0.06900
N27         N  0.84723650  0.85107015  0.99941583    -0.63970
N28         N  0.00389617  0.89285276  0.99227086    -0.05800
N29         N  0.01629206  0.85741278  0.99367454    -0.64660
Mn30       Mn  0.93804838  0.93238827  0.94913462     1.10660
C31         C  0.00102974  0.83449086  0.95601029     0.98320
C32         C  0.84181313  0.82889484  0.03654113     0.98390
N33         N  0.01892558  0.02423711  0.10166942    -0.06910
N34         N  0.01926949  0.04006822  0.13944944    -0.62290
N35         N  0.08211778  0.97964975  0.05421840    -0.06230
N36         N  0.11541525  0.96438989  0.05872158    -0.59010
N37         N  0.10454212  0.02890245  0.05542276    -0.07540
N38         N  0.15333871  0.04788124  0.06073475    -0.61850
N39         N  0.99623030  0.97493868  0.10008461    -0.06530
N40         N  0.98099050  0.95678687  0.13675288    -0.59040
Mn41       Mn  0.06279986  0.07035768  0.05067613     1.20190
Mn42       Mn  0.99987524  0.93342385  0.04642937     1.10090
Cl43       Cl  0.99996201  0.00142261  0.00017075    -0.87010
C44         C  0.99539620  0.99777875  0.16118141     0.95320
C45         C  0.15978188  0.00740769  0.06264380     0.95120
N46         N  0.10284992  0.11340125  0.48420960    -0.07160
N47         N  0.15009814  0.14543880  0.47985328    -0.59280
N48         N  0.99639130  0.10852027  0.50437848    -0.06840
N49         N  0.98361404  0.14282096  0.49862703    -0.61410
N50         N  0.02922030  0.12022097  0.53610450    -0.06440
N51         N  0.04170628  0.16543741  0.55063671    -0.59260
N52         N  0.07511772  0.10975356  0.45049662    -0.06120
N53         N  0.10380066  0.14100888  0.42261171    -0.61760
C54         C  0.15079027  0.16194008  0.44128890     0.95010
C55         C  0.01174664  0.17816928  0.52717605     0.94790
N56         N  0.88681274  0.97092884  0.46147313    -0.07350
N57         N  0.84263948  0.95508416  0.47651956    -0.59860
N58         N  0.98514766  0.01628601  0.40001823    -0.05470
N59         N  0.99794769  0.03097429  0.36232207    -0.61110
N60         N  0.96177868  0.96723862  0.40156535    -0.07380
N61         N  0.95820789  0.94764715  0.36438111    -0.60130
N62         N  0.91001370  0.01989070  0.45854092    -0.05110
N63         N  0.88191189  0.03784273  0.47143424    -0.61200
Mn64       Mn  0.99151725  0.06380454  0.45216215     1.18440
C65         C  0.83971193  0.99721420  0.48251782     0.97100
C66         C  0.98122967  0.98806897  0.34010507     0.97760
N67         N  0.03890167  0.04227412  0.60040454    -0.07400
N68         N  0.04356844  0.06148029  0.63794529    -0.63710
N69         N  0.09227576  0.99119915  0.54397398    -0.06200
N70         N  0.12069226  0.97364926  0.53103566    -0.64380
N71         N  0.11514251  0.04005959  0.54124745    -0.06900
N72         N  0.15944546  0.05639875  0.52630157    -0.63970
N73         N  0.01591255  0.99313415  0.60171041    -0.05800
N74         N  0.00462350  0.97800291  0.63956839    -0.64660
Mn75       Mn  0.07220115  0.07992247  0.54206273     1.10660
C76         C  0.02155168  0.02071879  0.66201631     0.98320
C77         C  0.16269141  0.01452872  0.52007825     0.98390
N78         N  0.97434884  0.89185302  0.46531342    -0.06910
N79         N  0.96488849  0.84746027  0.45120608    -0.62290
N80         N  0.92651600  0.89838444  0.55081840    -0.06230
N81         N  0.89825734  0.86569343  0.57828767    -0.59010
N82         N  0.89834947  0.89487912  0.51744830    -0.07540
N83         N  0.85134681  0.86128914  0.52152746    -0.61850
N84         N  0.00977288  0.90700127  0.49513705    -0.06530
N85         N  0.02848479  0.87722134  0.49876676    -0.59040
Mn86       Mn  0.92916569  0.93006863  0.45996924     1.20190
Mn87       Mn  0.01081920  0.94694913  0.54913489     1.10090
Cl88       Cl  0.00069919  0.00526614  0.50101110    -0.87010
C89         C  0.99968492  0.83943255  0.47253446     0.95320
C90         C  0.85113507  0.84317599  0.55948119     0.95120
N91         N  0.88577405  0.40367874  0.96545399    -0.07160
N92         N  0.84790559  0.36338520  0.94647896    -0.59280
N93         N  0.89534276  0.49196044  0.03179521    -0.06840
N94         N  0.86827731  0.50711320  0.05092593    -0.61410
N95         N  0.89527913  0.50256573  0.99254882    -0.06440
N96         N  0.87061144  0.52610574  0.98429660    -0.59260
N97         N  0.89032496  0.39395530  0.00460094    -0.06120
N98         N  0.85785608  0.34744434  0.01251908    -0.61760
C99         C  0.83199709  0.32817567  0.97625349     0.95010
C100        C  0.85414650  0.52940117  0.02048909     0.94790
N101        N  0.02872087  0.53002155  0.10215458    -0.07350
N102        N  0.04879543  0.54794002  0.13956624    -0.59860
N103        N  0.97557642  0.41038246  0.06798871    -0.05470
N104        N  0.95796070  0.36158300  0.07034292    -0.61110
N105        N  0.02446561  0.43398313  0.06773242    -0.07380
N106        N  0.04086719  0.40139051  0.06999037    -0.60130
N107        N  0.97972468  0.50592411  0.10208866    -0.05110
N108        N  0.96587973  0.50717561  0.13958779    -0.61200
Mn109      Mn  0.93408830  0.45038547  0.05264011     1.18440
C110        C  0.00927784  0.53413536  0.16267015     0.97100
C111        C  0.99897042  0.35603258  0.07199547     0.97760
N112        N  0.96824599  0.56504498  0.93122398    -0.07400
N113        N  0.95048536  0.59655123  0.92923726    -0.63710
N114        N  0.01698495  0.49608511  0.90002201    -0.06200
N115        N  0.03261468  0.49613440  0.86313865    -0.64380
N116        N  0.96792634  0.46995224  0.89878460    -0.06900
N117        N  0.94973161  0.45235403  0.86091980    -0.63970
N118        N  0.01720841  0.59015751  0.93281138    -0.05800
N119        N  0.03370755  0.63885363  0.93160007    -0.64660
Mn120      Mn  0.92815000  0.48383810  0.94587627     1.10660
C121        C  0.99171812  0.64247301  0.92868858     0.98320
C122        C  0.99051967  0.46859315  0.83886189     0.98390
N123        N  0.10029493  0.49818118  0.00562881    -0.06910
N124        N  0.14006354  0.49566891  0.01765146    -0.62290
N125        N  0.10255475  0.60826535  0.99750465    -0.06230
N126        N  0.13533622  0.65475659  0.99000731    -0.59010
N127        N  0.10919406  0.59661275  0.03565353    -0.07540
N128        N  0.14854489  0.63585189  0.05445270    -0.61850
N129        N  0.10471606  0.51783573  0.96881740    -0.06530
N130        N  0.14987642  0.53238578  0.95683020    -0.59040
Mn131      Mn  0.06613943  0.51521175  0.05349985     1.20190
Mn132      Mn  0.06040656  0.55280323  0.94913009     1.10090
Cl133      Cl  0.99720187  0.50041853  0.00031940    -0.87010
C134        C  0.17113438  0.51864106  0.98811985     0.95320
C135        C  0.16356331  0.67211875  0.02551327     0.95120
N136        N  0.99919552  0.40594068  0.45913339    -0.07160
N137        N  0.00317711  0.37047462  0.43947909    -0.59280
N138        N  0.92075921  0.38978041  0.52726047    -0.06840
N139        N  0.88877650  0.34597278  0.54172613    -0.61410
N140        N  0.90438838  0.39498076  0.49018449    -0.06440
N141        N  0.86105441  0.35692326  0.47927529    -0.59260
N142        N  0.02001133  0.41189825  0.49682974    -0.06120
N143        N  0.04083305  0.38406483  0.50253207    -0.61760
C144        C  0.03034542  0.35807552  0.46705699     0.95010
C145        C  0.85244391  0.32635364  0.51076169     0.94790
N146        N  0.99955956  0.51800986  0.60502455    -0.07350
N147        N  0.99670861  0.52973853  0.64341106    -0.59860
N148        N  0.07831190  0.48599540  0.56688110    -0.05470
N149        N  0.11316153  0.47285064  0.56885354    -0.61110
N150        N  0.09831117  0.53472337  0.56980241    -0.07380
N151        N  0.14777692  0.55590161  0.57340100    -0.60130
N152        N  0.98002141  0.46930844  0.60048732    -0.05110
N153        N  0.96315167  0.44704043  0.63551374    -0.61200
Mn154      Mn  0.99905240  0.43834791  0.54859022     1.18440
C155        C  0.97283658  0.48502007  0.66184412     0.97100
C156        C  0.15659920  0.51661955  0.57311118     0.97760
N157        N  0.89972644  0.47275075  0.43388778    -0.07400
N158        N  0.85019584  0.45251380  0.43119925    -0.63710
N159        N  0.01786028  0.53779652  0.40186420    -0.06200
N160        N  0.03358868  0.55993224  0.36656524    -0.64380
N161        N  0.99867041  0.48916546  0.39741712    -0.06900
N162        N  0.00113884  0.47728901  0.35892989    -0.63970
N163        N  0.92050238  0.52149226  0.43659881    -0.05800
N164        N  0.88642416  0.53558370  0.43541181    -0.64660
Mn165      Mn  0.95016690  0.43964045  0.44410749     1.10660
C166        C  0.84237001  0.49259793  0.43145347     0.98320
C167        C  0.02419206  0.52194712  0.34033107     0.98390
N168        N  0.09464933  0.61346665  0.51337948    -0.06910
N169        N  0.14017131  0.64906183  0.52223060    -0.62290
N170        N  0.97680811  0.59215022  0.50703119    -0.06230
N171        N  0.95843919  0.62172551  0.49935407    -0.59010
N172        N  0.00145908  0.60255997  0.54340199    -0.07540
N173        N  0.00501236  0.64421713  0.55858159    -0.61850
N174        N  0.07893947  0.61625822  0.47537451    -0.06530
N175        N  0.11443059  0.65519617  0.45731203    -0.59040
Mn176      Mn  0.04883168  0.56819597  0.55907991     1.20190
Mn177      Mn  0.99956361  0.56798744  0.45466702     1.10090
Cl178      Cl  0.99957059  0.50350884  0.50153946    -0.87010
C179        C  0.15184497  0.67454324  0.48744660     0.95320
C180        C  0.97758988  0.65530803  0.53036065     0.95120
N181        N  0.41024820  0.89679300  0.95745892    -0.07160
N182        N  0.38013959  0.85078496  0.96948179    -0.59280
N183        N  0.46811981  0.00284400  0.90189725    -0.06840
N184        N  0.46905059  0.02055158  0.86433473    -0.61410
N185        N  0.49088117  0.97622780  0.90301418    -0.06440
N186        N  0.50804028  0.97562036  0.86715604    -0.59260
N187        N  0.38743585  0.92329349  0.95734443    -0.06120
N188        N  0.34164711  0.89577014  0.96940138    -0.61760
C189        C  0.33709048  0.85030842  0.97665470     0.95010
C190        C  0.49497495  0.00373351  0.84323046     0.94790
N191        N  0.50333631  0.10743424  0.99793406    -0.07350
N192        N  0.51898167  0.15510095  0.00232674    -0.59860
N193        N  0.39494428  0.00612586  0.01354233    -0.05470
N194        N  0.34730689  0.99134545  0.01614524    -0.61110
N195        N  0.42073629  0.02794880  0.04831455    -0.07380
N196        N  0.39053123  0.02926611  0.07509659    -0.60130
N197        N  0.47357427  0.08836152  0.96439803    -0.05110
N198        N  0.46602865  0.12341193  0.94673386    -0.61200
Mn199      Mn  0.43017490  0.00554697  0.95750376     1.18440
C200        C  0.49602455  0.16515066  0.97058915     0.97100
C201        C  0.34449969  0.00486989  0.05482712     0.97760
N202        N  0.57566873  0.96918837  0.95708602    -0.07400
N203        N  0.60456123  0.96500931  0.93055235    -0.63710
N204        N  0.52445753  0.91286862  0.04163137    -0.06200
N205        N  0.53173361  0.87801029  0.05991426    -0.64380
N206        N  0.49310137  0.89288188  0.00907610    -0.06900
N207        N  0.47643269  0.84492960  0.00587765    -0.63970
N208        N  0.60265612  0.99313761  0.99084500    -0.05800
N209        N  0.64993266  0.00645256  0.98785264    -0.64660
Mn210      Mn  0.49231398  0.93328379  0.95561276     1.10660
C211        C  0.65101249  0.98961027  0.94996970     0.98320
C212        C  0.50042161  0.83559136  0.03729134     0.98390
N213        N  0.50740012  0.02300185  0.10283582    -0.06910
N214        N  0.49246061  0.02425906  0.13964705    -0.62290
N215        N  0.61044873  0.07859358  0.04617681    -0.06230
N216        N  0.65547842  0.10796071  0.03294739    -0.59010
N217        N  0.58628638  0.10363457  0.04839725    -0.07540
N218        N  0.61452148  0.15019071  0.03701246    -0.61850
N219        N  0.53259864  0.99879408  0.10320024    -0.06530
N220        N  0.53577424  0.98339845  0.14094281    -0.59040
Mn221      Mn  0.50431354  0.06568612  0.05052603     1.20190
Mn222      Mn  0.56875561  0.99583238  0.04696703     1.10090
Cl223      Cl  0.49897609  0.00017417  0.00260578    -0.87010
C224        C  0.50980007  0.99905293  0.16296875     0.95320
C225        C  0.65783973  0.15295961  0.02757496     0.95120
N226        N  0.52247898  0.09583758  0.56670147    -0.07160
N227        N  0.54021103  0.14482053  0.56813799    -0.59280
N228        N  0.47415308  0.98075557  0.60319038    -0.06840
N229        N  0.45690158  0.96962879  0.64021293    -0.61410
N230        N  0.52334961  0.00444154  0.60605879    -0.06440
N231        N  0.54000984  0.01001660  0.64528548    -0.59260
N232        N  0.47353660  0.07231089  0.56405613    -0.06120
N233        N  0.45706798  0.10484557  0.56371251    -0.61760
C234        C  0.49915275  0.15036229  0.56645601     0.95010
C235        C  0.49811099  0.98790476  0.66623061     0.94790
N236        N  0.39569741  0.89782820  0.49488606    -0.07350
N237        N  0.36627286  0.85027967  0.48742151    -0.59860
N238        N  0.39212316  0.00324544  0.49940766    -0.05470
N239        N  0.36081471  0.01947074  0.50504419    -0.61110
N240        N  0.38766317  0.98666321  0.46122642    -0.07380
N241        N  0.35062788  0.98991097  0.44053378    -0.60130
N242        N  0.39242091  0.91069251  0.53253910    -0.05110
N243        N  0.35811957  0.87114693  0.55093332    -0.61200
Mn244      Mn  0.43221188  0.99091513  0.55047494     1.18440
C245        C  0.34317263  0.83353442  0.52222257     0.97100
C246        C  0.33547874  0.01200484  0.46842785     0.97760
N247        N  0.60883113  0.01697266  0.54247820    -0.07400
N248        N  0.64825172  0.01739698  0.56241140    -0.63710
N249        N  0.60350316  0.09052871  0.47181302    -0.06200
N250        N  0.64496650  0.12665058  0.45772708    -0.64380
N251        N  0.59713632  0.10429318  0.50807320    -0.06900
N252        N  0.63084233  0.15006519  0.51776714    -0.63970
N253        N  0.60384154  0.99917031  0.50465309    -0.05800
N254        N  0.63723607  0.98572011  0.49860754    -0.64660
Mn255      Mn  0.56375890  0.05496726  0.55676976     1.10660
C256        C  0.66444297  0.99622668  0.53457918     0.98320
C257        C  0.66144508  0.16329790  0.48738930     0.98390
N258        N  0.47246052  0.99835997  0.39827338    -0.06910
N259        N  0.45580485  0.99410115  0.35921384    -0.62290
N260        N  0.52215733  0.93063718  0.44015094    -0.06230
N261        N  0.53998346  0.89936804  0.44015350    -0.59010
N262        N  0.47316596  0.90617908  0.43720916    -0.07540
N263        N  0.45678672  0.85733845  0.43502940    -0.61850
N264        N  0.52159436  0.02179860  0.40109727    -0.06530
N265        N  0.53877328  0.03395402  0.36408021    -0.59040
Mn266      Mn  0.43110801  0.94727817  0.44677961     1.20190
Mn267      Mn  0.56321758  0.01112672  0.45382279     1.10090
Cl268      Cl  0.49752296  0.00089709  0.50203057    -0.87010
C269        C  0.49746738  0.01668643  0.33806695     0.95320
C270        C  0.49898387  0.85348113  0.43613574     0.95120
N271        N  0.51340406  0.40652375  0.04308859    -0.07160
N272        N  0.51210284  0.36677037  0.06080892    -0.59280
N273        N  0.58817690  0.48064776  0.97516911    -0.06840
N274        N  0.62716836  0.48348475  0.95757374    -0.61410
N275        N  0.60222012  0.49940461  0.01298492    -0.06440
N276        N  0.64982582  0.51790684  0.02125320    -0.59260
N277        N  0.49278818  0.39375019  0.00526902    -0.06120
N278        N  0.47440468  0.34612917  0.99755284    -0.61760
C279        C  0.48621504  0.32918763  0.03190320     0.95010
C280        C  0.66505782  0.50743165  0.98725115     0.94790
N281        N  0.49522819  0.52197662  0.90439041    -0.07350
N282        N  0.49517557  0.53961006  0.86713394    -0.59860
N283        N  0.42494114  0.40587629  0.94083447    -0.05470
N284        N  0.39110687  0.35756679  0.93994636    -0.61110
N285        N  0.40283586  0.43292691  0.94015601    -0.07380
N286        N  0.35377176  0.40380038  0.93871486    -0.60130
N287        N  0.51815464  0.49554596  0.90526593    -0.05110
N288        N  0.53423289  0.49485018  0.86867502    -0.61200
Mn289      Mn  0.50696161  0.44351602  0.95564074     1.18440
C290        C  0.52044125  0.52314464  0.84519490     0.97100
C291        C  0.34640816  0.35653214  0.93832052     0.97760
N292        N  0.60007330  0.57090137  0.07373596    -0.07400
N293        N  0.64891917  0.60165523  0.07245211    -0.63710
N294        N  0.48419195  0.50777806  0.10860428    -0.06200
N295        N  0.46791803  0.50876846  0.14501989    -0.64380
N296        N  0.50657088  0.48082682  0.10978999    -0.06900
N297        N  0.50609945  0.46321294  0.14710574    -0.63970
N298        N  0.57670574  0.59678941  0.07272009    -0.05800
N299        N  0.60873823  0.64516264  0.07075488    -0.64660
Mn300      Mn  0.55575854  0.48823948  0.06110457     1.10660
C301        C  0.65397485  0.64820403  0.07078502     0.98320
C302        C  0.48122115  0.48028043  0.16880558     0.98390
N303        N  0.39974170  0.50229539  0.00303039    -0.06910
N304        N  0.35497362  0.49417667  0.99281709    -0.62290
N305        N  0.50951823  0.60938163  0.00838985    -0.06230
N306        N  0.52687281  0.65705054  0.01518854    -0.59010
N307        N  0.48873292  0.59547162  0.97074964    -0.07540
N308        N  0.48954246  0.63432139  0.95188064    -0.61850
N309        N  0.41618285  0.52514614  0.03935476    -0.06530
N310        N  0.38345795  0.53683854  0.05264327    -0.59040
Mn311      Mn  0.44653141  0.51406731  0.95374814     1.20190
Mn312      Mn  0.49595098  0.55982046  0.05818973     1.10090
Cl313      Cl  0.50129362  0.50134203  0.00714708    -0.87010
C314        C  0.34584094  0.51730286  0.02261091     0.95320
C315        C  0.51480881  0.67265542  0.98008379     0.95120
N316        N  0.38614888  0.42123783  0.46070628    -0.07160
N317        N  0.35102264  0.39004645  0.43331084    -0.59280
N318        N  0.39096464  0.48188616  0.54693913    -0.06840
N319        N  0.35742303  0.48088365  0.57123732    -0.61410
N320        N  0.39173518  0.50645280  0.51328334    -0.06440
N321        N  0.35948103  0.52290121  0.51430773    -0.59260
N322        N  0.38753746  0.39730894  0.49417146    -0.06120
N323        N  0.35390005  0.34936400  0.48996202    -0.61760
C324        C  0.33158438  0.34519625  0.45179632     0.95010
C325        C  0.33825294  0.50707413  0.55066818     0.94790
N326        N  0.52833007  0.50474148  0.60673733    -0.07350
N327        N  0.54816962  0.52329969  0.64403133    -0.59860
N328        N  0.47346046  0.39581904  0.55293610    -0.05470
N329        N  0.45507634  0.34674468  0.55422161    -0.61110
N330        N  0.52257959  0.41873414  0.55380235    -0.07380
N331        N  0.53815582  0.38552679  0.55564070    -0.60130
N332        N  0.47922542  0.48209483  0.60607528    -0.05110
N333        N  0.46494008  0.48509391  0.64303436    -0.61200
Mn334      Mn  0.43216112  0.43853636  0.55091055     1.18440
C335        C  0.50838144  0.51139277  0.66631445     0.97100
C336        C  0.49572406  0.34044933  0.55592796     0.97760
N337        N  0.47529288  0.58613870  0.45903697    -0.07400
N338        N  0.45851626  0.61822658  0.45693562    -0.63710
N339        N  0.51903922  0.52327946  0.40677600    -0.06200
N340        N  0.53330675  0.52038223  0.36982100    -0.64380
N341        N  0.46996018  0.50077842  0.40619133    -0.06900
N342        N  0.44995469  0.48222430  0.36894260    -0.63970
N343        N  0.52435128  0.60982886  0.45935210    -0.05800
N344        N  0.54160978  0.65878538  0.45739429    -0.64660
Mn345      Mn  0.43045567  0.50386687  0.45923191     1.10660
C346        C  0.50000474  0.66364229  0.45617997     0.98320
C347        C  0.48976150  0.49405747  0.34682847     0.98390
N348        N  0.60674722  0.49917482  0.49949651    -0.06910
N349        N  0.63809967  0.48162834  0.49808875    -0.62290
N350        N  0.60994784  0.60844662  0.51776405    -0.06230
N351        N  0.64177822  0.65682079  0.52112921    -0.59010
N352        N  0.61258957  0.58573368  0.55164057    -0.07540
N353        N  0.64729907  0.61877924  0.57854072    -0.61850
N354        N  0.60742793  0.52356542  0.46573698    -0.06530
N355        N  0.64009689  0.52333515  0.44101462    -0.59040
Mn356      Mn  0.56819917  0.50196137  0.55368655     1.20190
Mn357      Mn  0.56594033  0.56698750  0.46156188     1.10090
Cl358      Cl  0.49921275  0.50282554  0.50638865    -0.87010
C359        C  0.65842906  0.49615275  0.46125182     0.95320
C360        C  0.66444857  0.66329038  0.55930905     0.95120
C361        C  0.55098084  0.51487531  0.73435277    -0.21350
C362        C  0.51239632  0.51820182  0.71185524    -0.07920
C363        C  0.47878068  0.52685850  0.73331384     0.12950
C364        C  0.48392384  0.53058063  0.77670525    -0.21400
C365        C  0.52102725  0.52467624  0.79937948    -0.07920
C366        C  0.55543880  0.51731761  0.77768995     0.12940
C367        C  0.59718537  0.51218397  0.79962637    -0.24750
H368        H  0.57697729  0.50852947  0.71791114     0.14230
H369        H  0.45755304  0.53644211  0.79302335     0.14260
C370        C  0.43796436  0.53298869  0.71080251    -0.24700
H371        H  0.62254187  0.51055869  0.77759939     0.04470
H372        H  0.58174189  0.47705313  0.81710370     0.07700
H373        H  0.61982066  0.54480940  0.82094114     0.07700
H374        H  0.41081196  0.49766221  0.69411368     0.07680
H375        H  0.45436662  0.56368913  0.68850554     0.07680
H376        H  0.41702239  0.54237075  0.73237854     0.04450
C377        C  0.47156963  0.51529834  0.23388989    -0.21350
C378        C  0.48051361  0.47986896  0.21464042    -0.07920
C379        C  0.49152663  0.44796956  0.23972994     0.12950
C380        C  0.49430728  0.45330420  0.28299105    -0.21400
C381        C  0.48622269  0.48933320  0.30160274    -0.07920
C382        C  0.47458720  0.52058102  0.27694174     0.12940
C383        C  0.46670124  0.56052388  0.29603696    -0.24750
H384        H  0.46340513  0.54010655  0.21525099     0.14230
H385        H  0.50290316  0.42933876  0.30243878     0.14260
C386        C  0.49993159  0.40794978  0.22161727    -0.24700
H387        H  0.45920573  0.58258923  0.27222955     0.04470
H388        H  0.50059998  0.58671356  0.31542200     0.07700
H389        H  0.43429141  0.54310064  0.31552260     0.07700
H390        H  0.53451726  0.42524649  0.20472034     0.07680
H391        H  0.46742661  0.38284397  0.20044648     0.07680
H392        H  0.50449253  0.38458687  0.24593049     0.04450
C393        C  0.54076065  0.75381094  0.43640425    -0.21350
C394        C  0.49943285  0.71219189  0.45191901    -0.07920
C395        C  0.45810358  0.71766607  0.46183713     0.12950
C396        C  0.45930892  0.76373625  0.45561222    -0.21400
C397        C  0.50007886  0.80507940  0.43925642    -0.07920
C398        C  0.54127367  0.79942032  0.42892142     0.12940
C399        C  0.58569616  0.83919110  0.40816633    -0.24750
H400        H  0.57245831  0.75021059  0.42836738     0.14230
H401        H  0.42820188  0.76772266  0.46433735     0.14260
C402        C  0.41285380  0.67580851  0.48015641    -0.24700
H403        H  0.61933660  0.85439284  0.43000387     0.04470
H404        H  0.58042766  0.87014054  0.39629570     0.07700
H405        H  0.59251025  0.82243102  0.38082302     0.07700
H406        H  0.42438024  0.66280235  0.50863225     0.07680
H407        H  0.39263382  0.64433944  0.45737168     0.07680
H408        H  0.38606390  0.68784102  0.48873895     0.04450
C409        C  0.45436405  0.19999106  0.56722468    -0.21350
C410        C  0.49952413  0.19970027  0.56391422    -0.07920
C411        C  0.54296085  0.24610285  0.55712631     0.12950
C412        C  0.53997566  0.29049572  0.55467647    -0.21400
C413        C  0.49493049  0.29089122  0.55833552    -0.07920
C414        C  0.45133226  0.24439543  0.56448780     0.12940
C415        C  0.40121249  0.24064633  0.56854148    -0.24750
H416        H  0.42081642  0.16496675  0.57210265     0.14230
H417        H  0.57350742  0.32544155  0.54955928     0.14260
C418        C  0.59281611  0.24975524  0.55161253    -0.24700
H419        H  0.37167159  0.20164037  0.57371732     0.04470
H420        H  0.38963981  0.25303848  0.53974327     0.07700
H421        H  0.40323868  0.26402971  0.59528558     0.07700
H422        H  0.58972131  0.22585818  0.52485891     0.07680
H423        H  0.60562100  0.23799349  0.58010678     0.07680
H424        H  0.62204705  0.28860351  0.54552063     0.04450
C425        C  0.46431916  0.01026355  0.77221875    -0.21350
C426        C  0.50037666  0.00652990  0.79803649    -0.07920
C427        C  0.53788903  0.00038645  0.77996709     0.12950
C428        C  0.53614495  0.99489899  0.73692203    -0.21400
C429        C  0.49791922  0.99487047  0.71134772    -0.07920
C430        C  0.46247883  0.00452795  0.72914153     0.12940
C431        C  0.42322339  0.01007083  0.70325932    -0.24750
H432        H  0.43616126  0.01579091  0.78588517     0.14230
H433        H  0.56426240  0.98937422  0.72314594     0.14260
C434        C  0.58038611  0.00006434  0.80543818    -0.24700
H435        H  0.40128072  0.02098774  0.72234929     0.04470
H436        H  0.39652227  0.97402542  0.68732155     0.07700
H437        H  0.44123772  0.03961733  0.68024187     0.07700
H438        H  0.56643833  0.96572821  0.82384933     0.07680
H439        H  0.59942148  0.03375736  0.82617900     0.07680
H440        H  0.60872606  0.00042876  0.78571055     0.04450
C441        C  0.46187440  0.97233872  0.22484080    -0.21350
C442        C  0.50836057  0.99871542  0.20807018    -0.07920
C443        C  0.55063768  0.03161167  0.23345959     0.12950
C444        C  0.54541294  0.03726843  0.27539242    -0.21400
C445        C  0.49880415  0.01091971  0.29270163    -0.07920
C446        C  0.45641561  0.97734942  0.26689249     0.12940
C447        C  0.40532132  0.94617131  0.28280112    -0.24750
H448        H  0.42947102  0.94815629  0.20463221     0.14230
H449        H  0.57808698  0.06282247  0.29468260     0.14260
C450        C  0.60088081  0.06220888  0.21597626    -0.24700
H451        H  0.37718848  0.92240984  0.25796026     0.04470
H452        H  0.39241900  0.97085603  0.29565381     0.07700
H453        H  0.40646197  0.92073311  0.30681517     0.07700
H454        H  0.59850348  0.08645516  0.19138784     0.07680
H455        H  0.61286210  0.03696643  0.20270583     0.07680
H456        H  0.62992408  0.08663774  0.24000003     0.04450
C457        C  0.55321143  0.76149577  0.99432869    -0.21350
C458        C  0.50910801  0.71661035  0.98419426    -0.07920
C459        C  0.46340513  0.70984897  0.99715838     0.12950
C460        C  0.46319685  0.74757610  0.02069735    -0.21400
C461        C  0.50732442  0.79254921  0.03091965    -0.07920
C462        C  0.55301803  0.79962415  0.01751069     0.12940
C463        C  0.60137991  0.84770441  0.02638165    -0.24750
H464        H  0.58833340  0.76571292  0.98557837     0.14230
H465        H  0.42782538  0.74327492  0.02915155     0.14260
C466        C  0.41493084  0.66218271  0.98734099    -0.24700
H467        H  0.63352953  0.84599553  0.01454451     0.04470
H468        H  0.60869355  0.85500762  0.06025400     0.07700
H469        H  0.59936544  0.87929291  0.01133559     0.07700
H470        H  0.41656958  0.62995941  0.00142714     0.07680
H471        H  0.40814527  0.65626444  0.95332989     0.07680
H472        H  0.38265664  0.66347931  0.99941533     0.04450
C473        C  0.44695828  0.23988319  0.01826095    -0.21350
C474        C  0.49147996  0.28514044  0.02568009    -0.07920
C475        C  0.53501116  0.29189693  0.00795376     0.12950
C476        C  0.53312760  0.25371233  0.98357817    -0.21400
C477        C  0.48897987  0.20810287  0.97689869    -0.07920
C478        C  0.44531080  0.20117005  0.99440235     0.12940
C479        C  0.39737603  0.15238775  0.98918514    -0.24750
H480        H  0.41282035  0.23576512  0.02959753     0.14230
H481        H  0.56712235  0.25834311  0.97153665     0.14260
C482        C  0.58324738  0.34028080  0.01341314    -0.24700
H483        H  0.36705581  0.15415267  0.00438584     0.04470
H484        H  0.40263286  0.12211300  0.00324282     0.07700
H485        H  0.38582571  0.14359526  0.95586001     0.07700
H486        H  0.59392540  0.34800257  0.04693679     0.07680
H487        H  0.57860480  0.37092789  0.99941237     0.07680
H488        H  0.61401889  0.33903231  0.99839105     0.04450
C489        C  0.78432821  0.25705602  0.54142936    -0.21350
C490        C  0.81185705  0.27580602  0.50718236    -0.07920
C491        C  0.79315350  0.25213926  0.46772356     0.12950
C492        C  0.74365915  0.21524605  0.46243006    -0.21400
C493        C  0.71358269  0.20066736  0.49567271    -0.07920
C494        C  0.73492144  0.21938162  0.53654364     0.12940
C495        C  0.70718743  0.20155509  0.57551441    -0.24750
H496        H  0.80005919  0.27504574  0.57148329     0.14230
H497        H  0.72823969  0.19875838  0.43188629     0.14260
C498        C  0.82326271  0.26564988  0.43007682    -0.24700
H499        H  0.73180043  0.21968699  0.60381070     0.04470
H500        H  0.69219811  0.16064552  0.57841687     0.07700
H501        H  0.67674484  0.21093880  0.57535249     0.07700
H502        H  0.86293095  0.29377663  0.43662458     0.07680
H503        H  0.80694673  0.28037799  0.40610670     0.07680
H504        H  0.82225861  0.23168884  0.41738913     0.04450
C505        C  0.23820304  0.71585708  0.47591379    -0.21350
C506        C  0.19805237  0.72063674  0.48731562    -0.07920
C507        C  0.20557002  0.75970172  0.51459702     0.12950
C508        C  0.25390100  0.79361282  0.52988133    -0.21400
C509        C  0.29438012  0.78900117  0.51837403    -0.07920
C510        C  0.28640368  0.74918739  0.49151108     0.12940
C511        C  0.32839219  0.74114977  0.47944156    -0.24750
H512        H  0.23136018  0.68379923  0.45705950     0.14230
H513        H  0.26023024  0.82511658  0.54917194     0.14260
C514        C  0.16248140  0.76511343  0.52809047    -0.24700
H515        H  0.31420915  0.70456685  0.46303844     0.04470
H516        H  0.35106067  0.74170315  0.50755798     0.07700
H517        H  0.35220544  0.77037707  0.45812885     0.07700
H518        H  0.13598126  0.73125701  0.54426901     0.07680
H519        H  0.14277138  0.77082136  0.50063651     0.07680
H520        H  0.17530535  0.79774294  0.54958287     0.04450
C521        C  0.75275720  0.44936321  0.45082683    -0.21350
C522        C  0.79281142  0.49096217  0.43384216    -0.07920
C523        C  0.78579955  0.53201730  0.42216826     0.12950
C524        C  0.74065067  0.53110435  0.42933493    -0.21400
C525        C  0.70211457  0.49113120  0.44895742    -0.07920
C526        C  0.70800492  0.44910788  0.45892649     0.12940
C527        C  0.66705012  0.40345687  0.47776654    -0.24750
H528        H  0.75721141  0.41759306  0.45947313     0.14230
H529        H  0.73642808  0.56316862  0.42127309     0.14260
C530        C  0.82561332  0.57744991  0.40208559    -0.24700
H531        H  0.67639693  0.37295373  0.48095570     0.04470
H532        H  0.63189875  0.38905183  0.45786843     0.07700
H533        H  0.66108516  0.41279359  0.50909390     0.07700
H534        H  0.83727137  0.56582551  0.37445849     0.07680
H535        H  0.85823682  0.59868538  0.42435286     0.07680
H536        H  0.81205866  0.60348001  0.39182477     0.04450
C537        C  0.21071049  0.47813419  0.58697554    -0.21350
C538        C  0.20651309  0.51925754  0.57228654    -0.07920
C539        C  0.24787723  0.55825005  0.55355335     0.12950
C540        C  0.29086149  0.55394879  0.54865925    -0.21400
C541        C  0.29440213  0.51204267  0.56225468    -0.07920
C542        C  0.25377291  0.47403202  0.58242453     0.12940
C543        C  0.25411583  0.42763545  0.59735494    -0.24750
H544        H  0.17930651  0.44808420  0.60133152     0.14230
H545        H  0.32166982  0.58319346  0.53312164     0.14260
C546        C  0.24631525  0.60337252  0.53675660    -0.24700
H547        H  0.21866997  0.40115023  0.61109568     0.04470
H548        H  0.28490590  0.43793571  0.62150173     0.07700
H549        H  0.25899241  0.40783819  0.57110241     0.07700
H550        H  0.24159299  0.62429806  0.56218640     0.07680
H551        H  0.21489731  0.59146030  0.51292437     0.07680
H552        H  0.28129465  0.62943763  0.52219778     0.04450
C553        C  0.94058318  0.44369968  0.77150122    -0.21350
C554        C  0.98793182  0.46985320  0.79290713    -0.07920
C555        C  0.03017704  0.50024895  0.77016024     0.12950
C556        C  0.02329666  0.50506353  0.72762239    -0.21400
C557        C  0.97595525  0.47999269  0.70688278    -0.07920
C558        C  0.93419080  0.44823785  0.72874973     0.12940
C559        C  0.88280099  0.42039438  0.70723373    -0.24750
H560        H  0.90807481  0.42021423  0.78836261     0.14230
H561        H  0.05537002  0.52828310  0.71014487     0.14260
C562        C  0.08273008  0.52832285  0.78972700    -0.24700
H563        H  0.85398767  0.39809601  0.72912128     0.04470
H564        H  0.88186144  0.39436947  0.68323870     0.07700
H565        H  0.87301450  0.44740568  0.69244028     0.07700
H566        H  0.09239481  0.50187871  0.80576079     0.07680
H567        H  0.08636024  0.55756459  0.81172432     0.07680
H568        H  0.11064451  0.54765497  0.76644151     0.04450
C569        C  0.05586904  0.53516970  0.22834762    -0.21350
C570        C  0.01349769  0.53447927  0.20859277    -0.07920
C571        C  0.97536615  0.53083055  0.23298102     0.12950
C572        C  0.98044640  0.52741490  0.27603344    -0.21400
C573        C  0.02207410  0.52675466  0.29522412    -0.07920
C574        C  0.06030816  0.53087427  0.27132928     0.12940
C575        C  0.10546631  0.53036397  0.29121296    -0.24750
H576        H  0.08512450  0.53757008  0.21002251     0.14230
H577        H  0.95139436  0.52456379  0.29491906     0.14260
C578        C  0.92960324  0.53117184  0.21421090    -0.24700
H579        H  0.13201160  0.53389247  0.26807310     0.04470
H580        H  0.09368024  0.49466765  0.30742421     0.07700
H581        H  0.12529299  0.56206904  0.31388053     0.07700
H582        H  0.90657351  0.49706528  0.19457228     0.07680
H583        H  0.94085320  0.56501300  0.19544765     0.07680
H584        H  0.90570481  0.53161838  0.23825685     0.04450
C585        C  0.74043457  0.19331558  0.99542559    -0.21350
C586        C  0.69968945  0.19733973  0.00824197    -0.07920
C587        C  0.70003322  0.24346801  0.00180287     0.12950
C588        C  0.74190093  0.28426451  0.98577345    -0.21400
C589        C  0.78363436  0.28087483  0.97571890    -0.07920
C590        C  0.78211756  0.23435344  0.97929897     0.12940
C591        C  0.82495127  0.22830692  0.96643158    -0.24750
H592        H  0.74037570  0.15821054  0.99890787     0.14230
H593        H  0.74362366  0.32032867  0.98385998     0.14260
C594        C  0.65759233  0.25134107  0.01279700    -0.24700
H595        H  0.81835917  0.18977296  0.97148606     0.04470
H596        H  0.85999515  0.25481050  0.98420625     0.07700
H597        H  0.82975961  0.23613916  0.93306008     0.07700
H598        H  0.65217364  0.24597322  0.04634053     0.07680
H599        H  0.62296699  0.22480376  0.99446621     0.07680
H600        H  0.66477581  0.28970526  0.00585480     0.04450
C601        C  0.29800998  0.76597544  0.00896844    -0.21350
C602        C  0.29345080  0.80741639  0.99554114    -0.07920
C603        C  0.24739358  0.80629480  0.00032115     0.12950
C604        C  0.20700972  0.76301932  0.01523843    -0.21400
C605        C  0.21083694  0.72070665  0.02611411    -0.07920
C606        C  0.25738408  0.72278913  0.02390377     0.12940
C607        C  0.26341686  0.67831703  0.03489046    -0.24750
H608        H  0.33312066  0.76650078  0.00647700     0.14230
H609        H  0.17095183  0.76094618  0.01602526     0.14260
C610        C  0.23914345  0.84929991  0.98832855    -0.24700
H611        H  0.30204444  0.68579145  0.03125610     0.04470
H612        H  0.23755466  0.64572687  0.01455261     0.07700
H613        H  0.25490319  0.66898109  0.06757739     0.07700
H614        H  0.24479173  0.85683096  0.95500539     0.07680
H615        H  0.26522984  0.88315452  0.00727300     0.07680
H616        H  0.20065818  0.84121461  0.99356056     0.04450
C617        C  0.75167455  0.54547418  0.97192946    -0.21350
C618        C  0.71200452  0.50761164  0.99145811    -0.07920
C619        C  0.72146811  0.48463462  0.02650998     0.12950
C620        C  0.77024429  0.49887488  0.04005113    -0.21400
C621        C  0.80986923  0.53469224  0.01916492    -0.07920
C622        C  0.80071205  0.56016042  0.98590019     0.12940
C623        C  0.84184555  0.60240300  0.96402602    -0.24750
H624        H  0.74447594  0.56567662  0.94733651     0.14230
H625        H  0.77695920  0.47901047  0.06521154     0.14260
C626        C  0.68120783  0.44570916  0.05141945    -0.24700
H627        H  0.83740296  0.63606899  0.96543339     0.04470
H628        H  0.83997714  0.59143850  0.93114844     0.07700
H629        H  0.87925217  0.61286518  0.97827285     0.07700
H630        H  0.64331707  0.43579794  0.03897637     0.07680
H631        H  0.68592137  0.45992491  0.08368421     0.07680
H632        H  0.68425551  0.41118345  0.05179139     0.04450
C633        C  0.28780714  0.54269692  0.04600554    -0.21350
C634        C  0.31042641  0.53468973  0.01346458    -0.07920
C635        C  0.29609463  0.54004007  0.97180286     0.12950
C636        C  0.25207434  0.54133441  0.96397905    -0.21400
C637        C  0.22429887  0.53917605  0.99659566    -0.07920
C638        C  0.24539104  0.54696168  0.03787212     0.12940
C639        C  0.22337058  0.55793519  0.07393015    -0.24750
H640        H  0.30145610  0.54290826  0.07766813     0.14230
H641        H  0.23691447  0.53869878  0.93244516     0.14260
C642        C  0.32418698  0.54110597  0.93488179    -0.24700
H643        H  0.25316529  0.59060690  0.09209997     0.04470
H644        H  0.20733756  0.52516863  0.09427523     0.07700
H645        H  0.19441062  0.56792383  0.06402161     0.07700
H646        H  0.31604932  0.50274495  0.92650073     0.07680
H647        H  0.36491118  0.56587077  0.94145983     0.07680
H648        H  0.31291498  0.55581878  0.90732216     0.04450
C649        C  0.75969407  0.80162915  0.56502533    -0.21350
C650        C  0.80419927  0.80032194  0.57414021    -0.07920
C651        C  0.80040593  0.75469666  0.58788372     0.12950
C652        C  0.75315066  0.71099273  0.58759850    -0.21400
C653        C  0.70961364  0.71139713  0.57295170    -0.07920
C654        C  0.71267228  0.75797094  0.56420781     0.12940
C655        C  0.66647642  0.76176826  0.55319924    -0.24750
H656        H  0.76191601  0.83653959  0.55548400     0.14230
H657        H  0.75091581  0.67542196  0.59461232     0.14260
C658        C  0.84574630  0.74964479  0.59726754    -0.24700
H659        H  0.67541257  0.80130122  0.55065705     0.04470
H660        H  0.63974105  0.74463435  0.57764629     0.07700
H661        H  0.64846324  0.74261637  0.52310172     0.07700
H662        H  0.87245154  0.77960184  0.61939643     0.07680
H663        H  0.86243355  0.75144182  0.56774547     0.07680
H664        H  0.83631637  0.71303087  0.61099310     0.04450
C665        C  0.19605536  0.25066601  0.42076271    -0.21350
C666        C  0.19658890  0.20579964  0.42770919    -0.07920
C667        C  0.24312310  0.20728871  0.43410389     0.12950
C668        C  0.28728621  0.25363629  0.43868755    -0.21400
C669        C  0.28632705  0.29868053  0.43616469    -0.07920
C670        C  0.24049157  0.29724097  0.42493811     0.12940
C671        C  0.23756364  0.34458857  0.42090048    -0.24750
H672        H  0.16046242  0.24963221  0.41618060     0.14230
H673        H  0.32251478  0.25472777  0.44642324     0.14260
C674        C  0.24610846  0.15987113  0.43761879    -0.24700
H675        H  0.19869606  0.33662397  0.41328123     0.04470
H676        H  0.26075986  0.36724491  0.39579442     0.07700
H677        H  0.25118795  0.36661284  0.45043422     0.07700
H678        H  0.22804479  0.13610513  0.40933529     0.07680
H679        H  0.22708781  0.13882459  0.46486719     0.07680
H680        H  0.28538235  0.16776094  0.44107976     0.04450
C681        C  0.75675862  0.04118306  0.53264616    -0.21350
C682        C  0.71242540  0.99561222  0.53585288    -0.07920
C683        C  0.71201769  0.95087639  0.52508630     0.12950
C684        C  0.75455203  0.95280071  0.50956445    -0.21400
C685        C  0.79778590  0.99851703  0.50304832    -0.07920
C686        C  0.79928172  0.04341893  0.51629956     0.12940
C687        C  0.84467581  0.09416302  0.51248380    -0.24750
H688        H  0.75674989  0.07560638  0.53968206     0.14230
H689        H  0.75298920  0.91811750  0.50069364     0.14260
C690        C  0.66560223  0.90075926  0.52834240    -0.24700
H691        H  0.83937875  0.12457248  0.52514425     0.04470
H692        H  0.85237312  0.10205546  0.47948831     0.07700
H693        H  0.87741634  0.09550665  0.52999083     0.07700
H694        H  0.63438860  0.89863847  0.50791220     0.07680
H695        H  0.65475732  0.89517266  0.56077077     0.07680
H696        H  0.67154491  0.86958187  0.51890985     0.04450
C697        C  0.24978127  0.05874413  0.49730088    -0.21350
C698        C  0.20453094  0.01365222  0.49926165    -0.07920
C699        C  0.20083422  0.96973569  0.48113457     0.12950
C700        C  0.24323719  0.97165797  0.46495718    -0.21400
C701        C  0.28937611  0.01599842  0.46641875    -0.07920
C702        C  0.29193106  0.06045467  0.48129442     0.12940
C703        C  0.34004125  0.10976954  0.48184914    -0.24750
H704        H  0.25314581  0.09268605  0.51032302     0.14230
H705        H  0.24142378  0.93737610  0.45441788     0.14260
C706        C  0.15298088  0.92028267  0.47924950    -0.24700
H707        H  0.33535557  0.14103086  0.49339779     0.04470
H708        H  0.35275335  0.11837087  0.45003959     0.07700
H709        H  0.36945943  0.10832096  0.50227639     0.07700
H710        H  0.12279306  0.92437394  0.46243275     0.07680
H711        H  0.14248592  0.90702375  0.51092011     0.07680
H712        H  0.15664703  0.89087101  0.46270788     0.04450
C713        C  0.97131237  0.73070314  0.54143701    -0.21350
C714        C  0.99001795  0.70601432  0.51924270    -0.07920
C715        C  0.01247697  0.72572140  0.48139662     0.12950
C716        C  0.01125341  0.76714435  0.46489663    -0.21400
C717        C  0.99058913  0.79061516  0.48620707    -0.07920
C718        C  0.97356264  0.77436390  0.52629766     0.12940
C719        C  0.95973909  0.80391101  0.55417188    -0.24750
H720        H  0.95501252  0.71582593  0.57050063     0.14230
H721        H  0.02812749  0.78239965  0.43609047     0.14260
C722        C  0.03889065  0.70406362  0.45855968    -0.24700
H723        H  0.94565520  0.78431763  0.58331921     0.04470
H724        H  0.93107279  0.81061296  0.53775200     0.08020
H725        H  0.99292448  0.84012692  0.56378664     0.07700
H726        H  0.01182218  0.66796554  0.44294541     0.07680
H727        H  0.06440987  0.69860294  0.48075104     0.07680
H728        H  0.06157559  0.72939607  0.43433931     0.04450
C729        C  0.06773841  0.30501421  0.48055536    -0.21350
C730        C  0.02419982  0.30805088  0.47168498    -0.07920
C731        C  0.97855595  0.27027829  0.48568817     0.12950
C732        C  0.97783607  0.23203360  0.50954574    -0.21400
C733        C  0.02102403  0.22859502  0.51820983    -0.07920
C734        C  0.06647844  0.26489509  0.50263536     0.12940
C735        C  0.11312469  0.26066251  0.50792879    -0.24750
H736        H  0.10312660  0.33511463  0.47140769     0.14230
H737        H  0.94247497  0.20260280  0.51949490     0.14260
C738        C  0.93048615  0.27085498  0.47649091    -0.24700
H739        H  0.14513643  0.29233377  0.49377730     0.04470
H740        H  0.10672935  0.22552049  0.49277882     0.07700
H741        H  0.12349059  0.26066708  0.54130379     0.07700
H742        H  0.92333984  0.26998069  0.44250023     0.07680
H743        H  0.93303869  0.30499937  0.49024651     0.07680
H744        H  0.89812286  0.23799708  0.48914459     0.04450
C745        C  0.01637400  0.05374745  0.77437503    -0.21350
C746        C  0.01500049  0.01248857  0.79485624    -0.07920
C747        C  0.01858310  0.97588417  0.77152251     0.12950
C748        C  0.02168185  0.98065077  0.72857620    -0.21400
C749        C  0.02152190  0.02102909  0.70789855    -0.07920
C750        C  0.01939670  0.05841945  0.73127991     0.12940
C751        C  0.01834048  0.10220529  0.71102787    -0.24750
H752        H  0.01374891  0.08202577  0.79205407     0.14230
H753        H  0.02414868  0.95225114  0.71092411     0.14260
C754        C  0.02026964  0.93220713  0.79149651    -0.24700
H755        H  0.01437822  0.12659885  0.73380308     0.04470
H756        H  0.98623751  0.08855491  0.68767588     0.07700
H757        H  0.05365838  0.12540921  0.69591171     0.07700
H758        H  0.98428158  0.90723280  0.80503765     0.07680
H759        H  0.05122127  0.94598734  0.81594902     0.07680
H760        H  0.02662646  0.90935714  0.76884490     0.04450
C761        C  0.01466671  0.03412371  0.27622796    -0.21350
C762        C  0.98495230  0.98778262  0.29433434    -0.07920
C763        C  0.95878956  0.94465619  0.26816941     0.12950
C764        C  0.96265272  0.94944783  0.22507348    -0.21400
C765        C  0.99185931  0.99607909  0.20702385    -0.07920
C766        C  0.01851087  0.03904883  0.23339122     0.12940
C767        C  0.05180194  0.09051924  0.21736711    -0.24750
H768        H  0.03528758  0.06737894  0.29583931     0.14230
H769        H  0.94239882  0.91629149  0.20528844     0.14260
C770        C  0.92629454  0.89357537  0.28496686    -0.24700
H771        H  0.06992864  0.11920509  0.24269335     0.04470
H772        H  0.02947551  0.10214121  0.19672306     0.07700
H773        H  0.08207228  0.09051329  0.20057610     0.07700
H774        H  0.89588633  0.89352170  0.30157851     0.07680
H775        H  0.94913177  0.88318045  0.30622947     0.07680
H776        H  0.90864850  0.86435639  0.26000233     0.04450
C777        C  0.74873554  0.77743341  0.03135853    -0.21350
C778        C  0.79452087  0.78328403  0.04781448    -0.07920
C779        C  0.79373847  0.74436083  0.07228018     0.12950
C780        C  0.74767733  0.70112140  0.07919364    -0.21400
C781        C  0.70176052  0.69559093  0.06312846    -0.07920
C782        C  0.70273698  0.73480508  0.03881278     0.12940
C783        C  0.65580587  0.73176724  0.01904998    -0.24750
H784        H  0.74892155  0.80672385  0.01238524     0.14230
H785        H  0.74754075  0.67139461  0.09747417     0.14260
C786        C  0.84129907  0.74709658  0.09007999    -0.24700
H787        H  0.66420690  0.76423780  0.99919060     0.04470
H788        H  0.63192594  0.73181543  0.04322312     0.07700
H789        H  0.63514605  0.69736393  0.99924783     0.07700
H790        H  0.86087227  0.77911546  0.11245191     0.07680
H791        H  0.86586298  0.75160962  0.06488815     0.07680
H792        H  0.83399153  0.71266966  0.10676350     0.04450
C793        C  0.20716224  0.26465306  0.95473278    -0.21350
C794        C  0.20510887  0.21820352  0.95152788    -0.07920
C795        C  0.24856566  0.21733421  0.94148874     0.12950
C796        C  0.29341513  0.26261899  0.93676282    -0.21400
C797        C  0.29634419  0.30961790  0.94121898    -0.07920
C798        C  0.25178227  0.31017402  0.94976992     0.12940
C799        C  0.25054815  0.35824273  0.95501251    -0.24750
H800        H  0.17382203  0.26535197  0.96245991     0.14230
H801        H  0.32653409  0.26113469  0.92970254     0.14260
C802        C  0.24734878  0.16835922  0.93536433    -0.24700
H803        H  0.21285851  0.35132510  0.96184250     0.04470
H804        H  0.26058552  0.37964851  0.92612365     0.07700
H805        H  0.27682805  0.38093893  0.98120167     0.07700
H806        H  0.21995213  0.14669022  0.90941051     0.07680
H807        H  0.23581443  0.14675059  0.96383341     0.07680
H808        H  0.28440194  0.17362449  0.92836451     0.04450
C809        C  0.69783126  0.94408289  0.94626018    -0.21350
C810        C  0.69538182  0.98758867  0.93781181    -0.07920
C811        C  0.73889557  0.03123953  0.92743851     0.12950
C812        C  0.78431501  0.03086359  0.92706941    -0.21400
C813        C  0.78768455  0.98804258  0.93766330    -0.07920
C814        C  0.74326895  0.94364299  0.94677107     0.12940
C815        C  0.74327587  0.89628550  0.95941569    -0.24750
H816        H  0.66444598  0.91103596  0.95507302     0.14230
H817        H  0.81768161  0.06477019  0.91955744     0.14260
C818        C  0.73746674  0.07851564  0.91756127    -0.24700
H819        H  0.70561198  0.86636177  0.96695890     0.04470
H820        H  0.76884512  0.90379088  0.98737850     0.07700
H821        H  0.75499488  0.88163568  0.93375865     0.07700
H822        H  0.72582809  0.09117332  0.94457585     0.07680
H823        H  0.71037713  0.07134598  0.89077720     0.07680
H824        H  0.77455796  0.10925710  0.90967241     0.04450
C825        C  0.29466214  0.04632415  0.04519672    -0.21350
C826        C  0.30084660  0.00923375  0.06528500    -0.07920
C827        C  0.26101673  0.97211575  0.08638012     0.12950
C828        C  0.21561795  0.97294931  0.08626233    -0.21400
C829        C  0.20931576  0.00996594  0.06520871    -0.07920
C830        C  0.24981232  0.04731177  0.04465027     0.12940
C831        C  0.24514466  0.08617597  0.01927034    -0.24750
H832        H  0.32450449  0.07316921  0.02755362     0.14230
H833        H  0.18465234  0.94404754  0.10191723     0.14260
C834        C  0.26602644  0.93104516  0.10774607    -0.24700
H835        H  0.27906417  0.10940163  0.00245897     0.04470
H836        H  0.23973244  0.11177638  0.03951451     0.07700
H837        H  0.21319446  0.06752318  0.99587152     0.07700
H838        H  0.29739983  0.94756817  0.13182482     0.07680
H839        H  0.27357779  0.90923621  0.08499360     0.07680
H840        H  0.23148332  0.90495012  0.12282765     0.04450
C841        C  0.98843467  0.75207828  0.97978179    -0.21350
C842        C  0.99813175  0.78533523  0.94707748    -0.07920
C843        C  0.00576470  0.77111588  0.90796142     0.12950
C844        C  0.00264002  0.72395616  0.90255440    -0.21400
C845        C  0.99194264  0.69051091  0.93522816    -0.07920
C846        C  0.98555421  0.70534131  0.97456173     0.12940
C847        C  0.97767602  0.67392330  0.01233062    -0.24750
H848        H  0.98306245  0.76263389  0.01005584     0.14230
H849        H  0.00904834  0.71330098  0.87274125     0.14260
C850        C  0.01927972  0.80630054  0.87243344    -0.24700
H851        H  0.00937473  0.69454619  0.03558210     0.04470
H852        H  0.97503234  0.63735253  0.00577563     0.07700
H853        H  0.94282027  0.66681626  0.02616983     0.07700
H854        H  0.05379919  0.84194277  0.88131703     0.07680
H855        H  0.98841593  0.81406749  0.86394846     0.07680
H856        H  0.02615905  0.79026975  0.84466185     0.04450
C857        C  0.95518787  0.21474087  0.06295728    -0.21350
C858        C  0.00027805  0.21541584  0.05776551    -0.07920
C859        C  0.04497221  0.26198438  0.05954269     0.12950
C860        C  0.04333064  0.30662621  0.06533631    -0.21400
C861        C  0.99806050  0.30649056  0.06964452    -0.07920
C862        C  0.95341910  0.25922901  0.06962622     0.12940
C863        C  0.90356619  0.25463310  0.07690315    -0.24750
H864        H  0.92096518  0.17898813  0.06161259     0.14230
H865        H  0.07780682  0.34203234  0.06557129     0.14260
C866        C  0.09436908  0.26485744  0.05361793    -0.24700
H867        H  0.87345482  0.21495165  0.07720116     0.04470
H868        H  0.89266978  0.27293440  0.05204192     0.07700
H869        H  0.90563754  0.27216907  0.10727430     0.07700
H870        H  0.09309496  0.24804696  0.02308153     0.07680
H871        H  0.10253045  0.24427724  0.07837063     0.07680
H872        H  0.12554476  0.30410810  0.05482883     0.04450
loop_ 
_geom_bond_atom_site_label_1 
_geom_bond_atom_site_label_2 
_geom_bond_distance 
_geom_bond_site_symmetry_2 
_ccdc_geom_bond_type 
N1            N2   1.320       .  A
N1            N7   1.318   1_565  A
N1          Mn30   2.211       .  S
N2            C9   1.352       .  A
N3            N5   1.319   1_445  A
N3            N4   1.320       .  A
N3          Mn19   2.201   1_455  S
N4           C10   1.351       .  A
N5            N6   1.323       .  A
N5          Mn30   2.229       .  S
N6           C10   1.357   1_665  A
N7            N8   1.324       .  A
N7          Mn19   2.227       .  S
N8            C9   1.358   1_545  A
C9          C813   1.497       .  S
C10         C746   1.490       .  S
N11          N17   1.318       .  A
N11          N12   1.325       .  A
N11         Mn41   2.226   1_556  S
N12          C20   1.355       .  A
N13          N14   1.323       .  A
N13          N15   1.318   1_655  A
N13         Mn19   2.213   1_554  S
N14          C21   1.353       .  A
N15          N16   1.327       .  A
N15         Mn41   2.235       .  S
N16          C21   1.358   1_455  A
N17          N18   1.328       .  A
N17         Mn19   2.241   1_455  S
N18          C20   1.359       .  A
Mn19        Cl43   2.562   1_556  S
C20         C794   1.499       .  S
C21         C858   1.494   1_655  S
N22          N23   1.329       .  A
N22          N28   1.318   1_655  A
N22         Mn30   2.238       .  S
N23          C31   1.360   1_655  A
N24          N26   1.317       .  A
N24          N25   1.326       .  A
N24         Mn42   2.227       .  S
N25          C32   1.358       .  A
N26          N27   1.325   1_554  A
N26         Mn30   2.229   1_554  S
N27          C32   1.357   1_556  A
N28          N29   1.320       .  A
N28         Mn42   2.208   1_456  S
N29          C31   1.352       .  A
Mn30        Cl43   2.561   1_566  S
C31         C842   1.498   1_455  S
C32         C778   1.506       .  S
N33          N34   1.320       .  A
N33          N39   1.319   1_445  A
N33         Mn41   2.220       .  S
N34          C44   1.354   1_445  A
N35          N36   1.324       .  A
N35          N37   1.318   1_565  A
N35         Mn42   2.212   1_455  S
N36          C45   1.354   1_565  A
N37          N38   1.319       .  A
N37         Mn41   2.213       .  S
N38          C45   1.353       .  A
N39          N40   1.322       .  A
N39         Mn42   2.208       .  S
N40          C44   1.354       .  A
Mn41        Cl43   2.558   1_455  S
Mn42        Cl43   2.561   1_565  S
C44         C765   1.497       .  S
C45         C829   1.488       .  S
N46          N47   1.312       .  A
N46          N52   1.316       .  A
N46         Mn75   2.169       .  S
N47          C54   1.343       .  A
N48          N50   1.316   1_655  A
N48          N49   1.303       .  A
N48         Mn64   2.141       .  S
N49          C55   1.333   1_655  A
N50          N51   1.327       .  A
N50         Mn75   2.217       .  S
N51          C55   1.360       .  A
N52          N53   1.331       .  A
N52         Mn64   2.253   1_455  S
N53          C54   1.364       .  A
C54         C666   1.482       .  S
C55         C733   1.461       .  S
N56          N62   1.315   1_565  A
N56          N57   1.326       .  A
N56         Mn86   2.217       .  S
N57          C65   1.358       .  A
N58          N59   1.316       .  A
N58          N60   1.314   1_545  A
N58         Mn64   2.180       .  S
N59          C66   1.350   1_545  A
N60          N61   1.327       .  A
N60         Mn86   2.231       .  S
N61          C66   1.361       .  A
N62          N63   1.324       .  A
N62         Mn64   2.214       .  S
N63          C65   1.353   1_545  A
Mn64        Cl88   2.495   1_655  S
C65         C685   1.509       .  S
C66         C762   1.497       .  S
N67          N68   1.326       .  A
N67          N73   1.316   1_545  A
N67         Mn75   2.238       .  S
N68          C76   1.361       .  A
N69          N71   1.312   1_565  A
N69          N70   1.324       .  A
N69         Mn87   2.207       .  S
N70          C77   1.352   1_565  A
N71          N72   1.326       .  A
N71         Mn75   2.205       .  S
N72          C77   1.357       .  A
N73          N74   1.315       .  A
N73         Mn87   2.176       .  S
N74          C76   1.349   1_565  A
Mn75        Cl88   2.569       .  S
C76         C749   1.489       .  S
C77         C698   1.506       .  S
N78          N79   1.326       .  A
N78          N84   1.312   1_655  A
N78         Mn86   2.221       .  S
N79          C89   1.363       .  A
N80          N81   1.335       .  A
N80          N82   1.316       .  A
N80         Mn87   2.277   1_655  S
N81          C90   1.367       .  A
N82          N83   1.316       .  A
N82         Mn86   2.174       .  S
N83          C90   1.346       .  A
N84          N85   1.302       .  A
N84         Mn87   2.137       .  S
N85          C89   1.329   1_455  A
Mn86        Cl88   2.577   1_665  S
Mn87        Cl88   2.488   1_565  S
C89         C717   1.454       .  S
C90         C650   1.501       .  S
N91          N92   1.332       .  A
N91          N97   1.317   1_556  A
N91        Mn120   2.254       .  S
N92          C99   1.365       .  A
N93          N95   1.312   1_554  A
N93          N94   1.324       .  A
N93        Mn109   2.216       .  S
N94         C100   1.365       .  A
N95          N96   1.299       .  A
N95        Mn120   2.106       .  S
N96         C100   1.332   1_556  A
N97          N98   1.314       .  A
N97        Mn109   2.176       .  S
N98          C99   1.342   1_554  A
C99         C589   1.483       .  S
C100        C621   1.451       .  S
N101        N107   1.315   1_455  A
N101        N102   1.320       .  A
N101       Mn131   2.189       .  S
N102        C110   1.352       .  A
N103        N104   1.323       .  A
N103        N105   1.313   1_655  A
N103       Mn109   2.205       .  S
N104        C111   1.355       .  A
N105        N106   1.326       .  A
N105       Mn131   2.233       .  S
N106        C111   1.360   1_455  A
N107        N108   1.321       .  A
N107       Mn109   2.205       .  S
N108        C110   1.353   1_655  A
Mn109      Cl133   2.540       .  S
C110        C570   1.487       .  S
C111        C861   1.511       .  S
N112        N113   1.327       .  A
N112        N118   1.312   1_655  A
N112       Mn120   2.235       .  S
N113        C121   1.357       .  A
N114        N116   1.316   1_455  A
N114        N115   1.318       .  A
N114       Mn132   2.202       .  S
N115        C122   1.350   1_455  A
N116        N117   1.320       .  A
N116       Mn120   2.187       .  S
N117        C122   1.354       .  A
N118        N119   1.323       .  A
N118       Mn132   2.188       .  S
N119        C121   1.351   1_455  A
Mn120      Cl133   2.528   1_556  S
C121        C845   1.490       .  S
C122        C554   1.489       .  S
N123        N124   1.303       .  A
N123        N129   1.318   1_554  A
N123       Mn131   2.135       .  S
N124        C134   1.331   1_554  A
N125        N126   1.313       .  A
N125        N127   1.317   1_556  A
N125       Mn132   2.160       .  S
N126        C135   1.340   1_556  A
N127        N128   1.333       .  A
N127       Mn131   2.270       .  S
N128        C135   1.366       .  A
N129        N130   1.320       .  A
N129       Mn132   2.182       .  S
N130        C134   1.350       .  A
Mn131      Cl133   2.512   1_455  S
Mn132      Cl133   2.533   1_456  S
C134        C637   1.446       .  S
C135        C605   1.485       .  S
N136        N137   1.328   1_655  A
N136        N142   1.316   1_655  A
N136       Mn165   2.246       .  S
N137        C144   1.365       .  A
N138        N140   1.315       .  A
N138        N139   1.320       .  A
N138       Mn154   2.190       .  S
N139        C145   1.354       .  A
N140        N141   1.299       .  A
N140       Mn165   2.105       .  S
N141        C145   1.330       .  A
N142        N143   1.305       .  A
N142       Mn154   2.139   1_455  S
N143        C144   1.335       .  A
C144        C730   1.461       .  S
C145        C490   1.436       .  S
N146        N152   1.315       .  A
N146        N147   1.320       .  A
N146       Mn176   2.201   1_655  S
N147        C155   1.353       .  A
N148        N149   1.320       .  A
N148        N150   1.310       .  A
N148       Mn154   2.186   1_455  S
N149        C156   1.352       .  A
N150        N151   1.329       .  A
N150       Mn176   2.233       .  S
N151        C156   1.362       .  A
N152        N153   1.319       .  A
N152       Mn154   2.188       .  S
N153        C155   1.350       .  A
Mn154      Cl178   2.502       .  S
C155        C557   1.470       .  S
C156        C538   1.504       .  S
N157        N158   1.333       .  A
N157        N163   1.308       .  A
N157       Mn165   2.249       .  S
N158        C166   1.367       .  A
N159        N161   1.314   1_455  A
N159        N160   1.319       .  A
N159       Mn177   2.186   1_455  S
N160        C167   1.350       .  A
N161        N162   1.321   1_655  A
N161       Mn165   2.202       .  S
N162        C167   1.353       .  A
N163        N164   1.318       .  A
N163       Mn177   2.176       .  S
N164        C166   1.349       .  A
Mn165      Cl178   2.531       .  S
C166        C522   1.512       .  S
C167        C573   1.470       .  S
N168        N169   1.301       .  A
N168        N174   1.314       .  A
N168       Mn176   2.102       .  S
N169        C179   1.332       .  A
N170        N171   1.302       .  A
N170        N172   1.314   1_655  A
N170       Mn177   2.148       .  S
N171        C180   1.330       .  A
N172        N173   1.326       .  A
N172       Mn176   2.221       .  S
N173        C180   1.361   1_455  A
N174        N175   1.323       .  A
N174       Mn177   2.209   1_455  S
N175        C179   1.354       .  A
Mn176      Cl178   2.545   1_455  S
Mn177      Cl178   2.488       .  S
C179        C506   1.431       .  S
C180        C714   1.457       .  S
N181        N182   1.325       .  A
N181        N187   1.313       .  A
N181       Mn210   2.211       .  S
N182        C189   1.356       .  A
N183        N185   1.314   1_545  A
N183        N184   1.327       .  A
N183       Mn199   2.235       .  S
N184        C190   1.363       .  A
N185        N186   1.312       .  A
N185       Mn210   2.160       .  S
N186        C190   1.343   1_565  A
N187        N188   1.323       .  A
N187       Mn199   2.200   1_565  S
N188        C189   1.354       .  A
C189        C602   1.505       .  S
C190        C426   1.483       .  S
N191        N197   1.314       .  A
N191        N192   1.303   1_556  A
N191       Mn221   2.134   1_556  S
N192        C200   1.333   1_554  A
N193        N194   1.315   1_545  A
N193        N195   1.315       .  A
N193       Mn199   2.180   1_554  S
N194        C201   1.347   1_565  A
N195        N196   1.328       .  A
N195       Mn221   2.243       .  S
N196        C201   1.361       .  A
N197        N198   1.328       .  A
N197       Mn199   2.221       .  S
N198        C200   1.363       .  A
Mn199      Cl223   2.575   1_556  S
C200        C477   1.458       .  S
C201        C826   1.478       .  S
N202        N203   1.328       .  A
N202        N208   1.315       .  A
N202       Mn210   2.241       .  S
N203        C211   1.360       .  A
N204        N206   1.314       .  A
N204        N205   1.327       .  A
N204       Mn222   2.223       .  S
N205        C212   1.363       .  A
N206        N207   1.302       .  A
N206       Mn210   2.130   1_554  S
N207        C212   1.334       .  A
N208        N209   1.316   1_565  A
N208       Mn222   2.178   1_556  S
N209        C211   1.346   1_545  A
Mn210      Cl223   2.488   1_566  S
C211        C810   1.478       .  S
C212        C461   1.458       .  S
N213        N214   1.314       .  A
N213        N219   1.314   1_545  A
N213       Mn221   2.162       .  S
N214        C224   1.344   1_545  A
N215        N216   1.327       .  A
N215        N217   1.314       .  A
N215       Mn222   2.214   1_545  S
N216        C225   1.359       .  A
N217        N218   1.321       .  A
N217       Mn221   2.208       .  S
N218        C225   1.351       .  A
N219        N220   1.324       .  A
N219       Mn222   2.222       .  S
N220        C224   1.357       .  A
Mn221      Cl223   2.488       .  S
Mn222      Cl223   2.572   1_565  S
C224        C442   1.466       .  S
C225        C586   1.507       .  S
N226        N227   1.324       .  A
N226        N232   1.311       .  A
N226       Mn255   2.223       .  S
N227        C234   1.357       .  A
N228        N230   1.318   1_565  A
N228        N229   1.318       .  A
N228       Mn244   2.193       .  S
N229        C235   1.347       .  A
N230        N231   1.322       .  A
N230       Mn255   2.196       .  S
N231        C235   1.353   1_545  A
N232        N233   1.326       .  A
N232       Mn244   2.209   1_545  S
N233        C234   1.359       .  A
C234        C410   1.512       .  S
C235        C429   1.482       .  S
N236        N242   1.312       .  A
N236        N237   1.299       .  A
N236       Mn266   2.115       .  S
N237        C245   1.333       .  A
N238        N239   1.309       .  A
N238        N240   1.317   1_545  A
N238       Mn244   2.148   1_545  S
N239        C246   1.337       .  A
N240        N241   1.335       .  A
N240       Mn266   2.274       .  S
N241        C246   1.369   1_565  A
N242        N243   1.323       .  A
N242       Mn244   2.208       .  S
N243        C245   1.362       .  A
Mn244      Cl268   2.530   1_565  S
C245        C509   1.450       .  S
C246        C701   1.484       .  S
N247        N248   1.336       .  A
N247        N253   1.317   1_545  A
N247       Mn255   2.281       .  S
N248        C256   1.369   1_545  A
N249        N251   1.312       .  A
N249        N250   1.320       .  A
N249       Mn267   2.187       .  S
N250        C257   1.359       .  A
N251        N252   1.297       .  A
N251       Mn255   2.116       .  S
N252        C257   1.326       .  A
N253        N254   1.311       .  A
N253       Mn267   2.147   1_565  S
N254        C256   1.337       .  A
Mn255      Cl268   2.518       .  S
C256        C682   1.488       .  S
C257        C493   1.452       .  S
N258        N259   1.320       .  A
N258        N264   1.316   1_565  A
N258       Mn266   2.191       .  S
N259        C269   1.352   1_565  A
N260        N261   1.322       .  A
N260        N262   1.312       .  A
N260       Mn267   2.186   1_565  S
N261        C270   1.352       .  A
N262        N263   1.328       .  A
N262       Mn266   2.247       .  S
N263        C270   1.363       .  A
N264        N265   1.319       .  A
N264       Mn267   2.194       .  S
N265        C269   1.351       .  A
Mn266      Cl268   2.528   1_565  S
Mn267      Cl268   2.532       .  S
C269        C445   1.489       .  S
C270        C397   1.507       .  S
N271        N272   1.329       .  A
N271        N277   1.315       .  A
N271       Mn300   2.247       .  S
N272        C279   1.366       .  A
N273        N275   1.313   1_556  A
N273        N274   1.328       .  A
N273       Mn289   2.231       .  S
N274        C280   1.363       .  A
N275        N276   1.297       .  A
N275       Mn300   2.097       .  S
N276        C280   1.327   1_554  A
N277        N278   1.302   1_554  A
N277       Mn289   2.124   1_554  S
N278        C279   1.331   1_556  A
C279        C474   1.458       .  S
C280        C618   1.444       .  S
N281        N287   1.313       .  A
N281        N282   1.321       .  A
N281       Mn311   2.194       .  S
N282        C290   1.355       .  A
N283        N284   1.328       .  A
N283        N285   1.309       .  A
N283       Mn289   2.223       .  S
N284        C291   1.361       .  A
N285        N286   1.323       .  A
N285       Mn311   2.204       .  S
N286        C291   1.355       .  A
N287        N288   1.319       .  A
N287       Mn289   2.197       .  S
N288        C290   1.353       .  A
Mn289      Cl313   2.525   1_556  S
C290        C365   1.488       .  S
C291        C797   1.514       .  S
N292        N293   1.330       .  A
N292        N298   1.310       .  A
N292       Mn300   2.239       .  S
N293        C301   1.361       .  A
N294        N296   1.313       .  A
N294        N295   1.319       .  A
N294       Mn312   2.196       .  S
N295        C302   1.354       .  A
N296        N297   1.320       .  A
N296       Mn300   2.191       .  S
N297        C302   1.353       .  A
N298        N299   1.322       .  A
N298       Mn312   2.189       .  S
N299        C301   1.352       .  A
Mn300      Cl313   2.518       .  S
C301        C781   1.509       .  S
C302        C378   1.488       .  S
N303        N304   1.298   1_554  A
N303        N309   1.314       .  A
N303       Mn311   2.130   1_554  S
N304        C314   1.327   1_556  A
N305        N306   1.303       .  A
N305        N307   1.314   1_554  A
N305       Mn312   2.126       .  S
N306        C315   1.334   1_554  A
N307        N308   1.327       .  A
N307       Mn311   2.232       .  S
N308        C315   1.362       .  A
N309        N310   1.323       .  A
N309       Mn312   2.192       .  S
N310        C314   1.356       .  A
Mn311      Cl313   2.507   1_556  S
Mn312      Cl313   2.525       .  S
C314        C634   1.449       .  S
C315        C458   1.454       .  S
N316        N317   1.324       .  A
N316        N322   1.316       .  A
N316       Mn345   2.214       .  S
N317        C324   1.355       .  A
N318        N320   1.317       .  A
N318        N319   1.328       .  A
N318       Mn334   2.248       .  S
N319        C325   1.362       .  A
N320        N321   1.322       .  A
N320       Mn345   2.206       .  S
N321        C325   1.353       .  A
N322        N323   1.321       .  A
N322       Mn334   2.212       .  S
N323        C324   1.354       .  A
C324        C669   1.485       .  S
C325        C541   1.505       .  S
N326        N332   1.318       .  A
N326        N327   1.319       .  A
N326       Mn356   2.203       .  S
N327        C335   1.352       .  A
N328        N329   1.325       .  A
N328        N330   1.318       .  A
N328       Mn334   2.234       .  S
N329        C336   1.358       .  A
N330        N331   1.325       .  A
N330       Mn356   2.230       .  S
N331        C336   1.359       .  A
N332        N333   1.322       .  A
N332       Mn334   2.214       .  S
N333        C335   1.355       .  A
Mn334      Cl358   2.562       .  S
C335        C362   1.483       .  S
C336        C413   1.513       .  S
N337        N338   1.320       .  A
N337        N343   1.316       .  A
N337       Mn345   2.204       .  S
N338        C346   1.352       .  A
N339        N341   1.317       .  A
N339        N340   1.321       .  A
N339       Mn357   2.204       .  S
N340        C347   1.352       .  A
N341        N342   1.318       .  A
N341       Mn345   2.199       .  S
N342        C347   1.349       .  A
N343        N344   1.328       .  A
N343       Mn357   2.245       .  S
N344        C346   1.362       .  A
Mn345      Cl358   2.550       .  S
C346        C394   1.506       .  S
C347        C381   1.468       .  S
N348        N349   1.323       .  A
N348        N354   1.317       .  A
N348       Mn356   2.208       .  S
N349        C359   1.353       .  A
N350        N351   1.318       .  A
N350        N352   1.317       .  A
N350       Mn357   2.194       .  S
N351        C360   1.350       .  A
N352        N353   1.329       .  A
N352       Mn356   2.245       .  S
N353        C360   1.361       .  A
N354        N355   1.330       .  A
N354       Mn357   2.258       .  S
N355        C359   1.364       .  A
Mn356      Cl358   2.556       .  S
Mn357      Cl358   2.562       .  S
C359        C525   1.508       .  S
C360        C653   1.492       .  S
C361        C362   1.404       .  A
C361        C366   1.403       .  A
C361        H368   1.084       .  S
C362        C363   1.413       .  A
C363        C364   1.406       .  A
C363        C370   1.507       .  S
C364        C365   1.408       .  A
C364        H369   1.084       .  S
C365        C366   1.417       .  A
C366        C367   1.508       .  S
C367        H371   1.111       .  S
C367        H372   1.109       .  S
C367        H373   1.110       .  S
C370        H374   1.109       .  S
C370        H375   1.110       .  S
C370        H376   1.111       .  S
C377        C378   1.408       .  A
C377        C382   1.399       .  A
C377        H384   1.083       .  S
C378        C379   1.421       .  A
C379        C380   1.407       .  A
C379        C386   1.507       .  S
C380        C381   1.398       .  A
C380        H385   1.084       .  S
C381        C382   1.408       .  A
C382        C383   1.509       .  S
C383        H387   1.111       .  S
C383        H388   1.111       .  S
C383        H389   1.110       .  S
C386        H390   1.109       .  S
C386        H391   1.110       .  S
C386        H392   1.111       .  S
C393        C394   1.406       .  A
C393        C398   1.413       .  A
C393        H400   1.084       .  S
C394        C395   1.422       .  A
C395        C396   1.411       .  A
C395        C402   1.509       .  S
C396        C397   1.405       .  A
C396        H401   1.080       .  S
C397        C398   1.425       .  A
C398        C399   1.508       .  S
C399        H403   1.110       .  S
C399        H404   1.104       .  S
C399        H405   1.111       .  S
C402        H406   1.110       .  S
C402        H407   1.109       .  S
C402        H408   1.109       .  S
C409        C410   1.409       .  A
C409        C414   1.415       .  A
C409        H416   1.083       .  S
C410        C411   1.423       .  A
C411        C412   1.413       .  A
C411        C418   1.508       .  S
C412        C413   1.408       .  A
C412        H417   1.084       .  S
C413        C414   1.423       .  A
C414        C415   1.507       .  S
C415        H419   1.111       .  S
C415        H420   1.110       .  S
C415        H421   1.110       .  S
C418        H422   1.110       .  S
C418        H423   1.109       .  S
C418        H424   1.111       .  S
C425        C426   1.400       .  A
C425        C430   1.404       .  A
C425        H432   1.084       .  S
C426        C427   1.422       .  A
C427        C428   1.403   1_545  A
C427        C434   1.510       .  S
C428        C429   1.399       .  A
C428        H433   1.085       .  S
C429        C430   1.421   1_565  A
C430        C431   1.508       .  S
C431        H435   1.111       .  S
C431        H436   1.109   1_545  S
C431        H437   1.111       .  S
C434        H438   1.109   1_545  S
C434        H439   1.110       .  S
C434        H440   1.111       .  S
C441        C442   1.398       .  A
C441        C446   1.404       .  A
C441        H448   1.084       .  S
C442        C443   1.408   1_565  A
C443        C444   1.402       .  A
C443        C450   1.507       .  S
C444        C445   1.409       .  A
C444        H449   1.083       .  S
C445        C446   1.422   1_545  A
C446        C447   1.508       .  S
C447        H451   1.111       .  S
C447        H452   1.110       .  S
C447        H453   1.110       .  S
C450        H454   1.111       .  S
C450        H455   1.110       .  S
C450        H456   1.111       .  S
C457        C458   1.401       .  A
C457        C462   1.400   1_556  A
C457        H464   1.082       .  S
C458        C459   1.411       .  A
C459        C460   1.397   1_556  A
C459        C466   1.507       .  S
C460        C461   1.403       .  A
C460        H465   1.086       .  S
C461        C462   1.413       .  A
C462        C463   1.507       .  S
C463        H467   1.111       .  S
C463        H468   1.110       .  S
C463        H469   1.110       .  S
C466        H470   1.109   1_556  S
C466        H471   1.110       .  S
C466        H472   1.111       .  S
C473        C474   1.400       .  A
C473        C478   1.403   1_554  A
C473        H480   1.085       .  S
C474        C475   1.413       .  A
C475        C476   1.396   1_554  A
C475        C482   1.499       .  S
C476        C477   1.397       .  A
C476        H481   1.084       .  S
C477        C478   1.412       .  A
C478        C479   1.500       .  S
C479        H483   1.109   1_556  S
C479        H484   1.110   1_556  S
C479        H485   1.109       .  S
C482        H486   1.109       .  S
C482        H487   1.110   1_554  S
C482        H488   1.111   1_554  S
C489        C490   1.383       .  A
C489        C494   1.386       .  A
C489        H496   1.085       .  S
C490        C491   1.418       .  A
C491        C492   1.382       .  A
C491        C498   1.510       .  S
C492        C493   1.390       .  A
C492        H497   1.085       .  S
C493        C494   1.433       .  A
C494        C495   1.514       .  S
C495        H499   1.111       .  S
C495        H500   1.111       .  S
C495        H501   1.110       .  S
C498        H502   1.103       .  S
C498        H503   1.110       .  S
C498        H504   1.111       .  S
C505        C506   1.390       .  A
C505        C510   1.389       .  A
C505        H512   1.086       .  S
C506        C507   1.413       .  A
C507        C508   1.393       .  A
C507        C514   1.510       .  S
C508        C509   1.398       .  A
C508        H513   1.084       .  S
C509        C510   1.418       .  A
C510        C511   1.508       .  S
C511        H515   1.111       .  S
C511        H516   1.109       .  S
C511        H517   1.108       .  S
C514        H518   1.110       .  S
C514        H519   1.109       .  S
C514        H520   1.111       .  S
C521        C522   1.407       .  A
C521        C526   1.418       .  A
C521        H528   1.083       .  S
C522        C523   1.426       .  A
C523        C524   1.413       .  A
C523        C530   1.509       .  S
C524        C525   1.403       .  A
C524        H529   1.084       .  S
C525        C526   1.422       .  A
C526        C527   1.507       .  S
C527        H531   1.111       .  S
C527        H532   1.110       .  S
C527        H533   1.109       .  S
C530        H534   1.110       .  S
C530        H535   1.109       .  S
C530        H536   1.111       .  S
C537        C538   1.409       .  A
C537        C542   1.412       .  A
C537        H544   1.084       .  S
C538        C539   1.418       .  A
C539        C540   1.415       .  A
C539        C546   1.507       .  S
C540        C541   1.410       .  A
C540        H545   1.084       .  S
C541        C542   1.418       .  A
C542        C543   1.507       .  S
C543        H547   1.111       .  S
C543        H548   1.110       .  S
C543        H549   1.111       .  S
C546        H550   1.110       .  S
C546        H551   1.110       .  S
C546        H552   1.111       .  S
C553        C554   1.410       .  A
C553        C558   1.404       .  A
C553        H560   1.084       .  S
C554        C555   1.423   1_655  A
C555        C556   1.401       .  A
C555        C562   1.509       .  S
C556        C557   1.399   1_455  A
C556        H561   1.085       .  S
C557        C558   1.407       .  A
C558        C559   1.506       .  S
C559        H563   1.111       .  S
C559        H564   1.110       .  S
C559        H565   1.110       .  S
C562        H566   1.110       .  S
C562        H567   1.110       .  S
C562        H568   1.111       .  S
C569        C570   1.410       .  A
C569        C574   1.404       .  A
C569        H576   1.084       .  S
C570        C571   1.417   1_455  A
C571        C572   1.405       .  A
C571        C578   1.507       .  S
C572        C573   1.401   1_655  A
C572        H577   1.085       .  S
C573        C574   1.405       .  A
C574        C575   1.506       .  S
C575        H579   1.111       .  S
C575        H580   1.110       .  S
C575        H581   1.110       .  S
C578        H582   1.109       .  S
C578        H583   1.110       .  S
C578        H584   1.111       .  S
C585        C586   1.410   1_556  A
C585        C590   1.411       .  A
C585        H592   1.083       .  S
C586        C587   1.426       .  A
C587        C588   1.410   1_554  A
C587        C594   1.508       .  S
C588        C589   1.400       .  A
C588        H593   1.085       .  S
C589        C590   1.411       .  A
C590        C591   1.506       .  S
C591        H595   1.111       .  S
C591        H596   1.108       .  S
C591        H597   1.110       .  S
C594        H598   1.110       .  S
C594        H599   1.109   1_554  S
C594        H600   1.111       .  S
C601        C602   1.411   1_554  A
C601        C606   1.411       .  A
C601        H608   1.084       .  S
C602        C603   1.423   1_556  A
C603        C604   1.409       .  A
C603        C610   1.508   1_554  S
C604        C605   1.403       .  A
C604        H609   1.084       .  S
C605        C606   1.412       .  A
C606        C607   1.505       .  S
C607        H611   1.111       .  S
C607        H612   1.110       .  S
C607        H613   1.110       .  S
C610        H614   1.110       .  S
C610        H615   1.110   1_556  S
C610        H616   1.111       .  S
C617        C618   1.390       .  A
C617        C622   1.394       .  A
C617        H624   1.085       .  S
C618        C619   1.423   1_556  A
C619        C620   1.386       .  A
C619        C626   1.507       .  S
C620        C621   1.389       .  A
C620        H625   1.085       .  S
C621        C622   1.422   1_554  A
C622        C623   1.507       .  S
C623        H627   1.110       .  S
C623        H628   1.111       .  S
C623        H629   1.104       .  S
C626        H630   1.102       .  S
C626        H631   1.111       .  S
C626        H632   1.110       .  S
C633        C634   1.389       .  A
C633        C638   1.387       .  A
C633        H640   1.084       .  S
C634        C635   1.429   1_554  A
C635        C636   1.386       .  A
C635        C642   1.513       .  S
C636        C637   1.384       .  A
C636        H641   1.085       .  S
C637        C638   1.420   1_556  A
C638        C639   1.509       .  S
C639        H643   1.110       .  S
C639        H644   1.110       .  S
C639        H645   1.109       .  S
C642        H646   1.110       .  S
C642        H647   1.109       .  S
C642        H648   1.111       .  S
C649        C650   1.406       .  A
C649        C654   1.408       .  A
C649        H656   1.084       .  S
C650        C651   1.419       .  A
C651        C652   1.413       .  A
C651        C658   1.495       .  S
C652        C653   1.403       .  A
C652        H657   1.084       .  S
C653        C654   1.415       .  A
C654        C655   1.507       .  S
C655        H659   1.109       .  S
C655        H660   1.110       .  S
C655        H661   1.108       .  S
C658        H662   1.110       .  S
C658        H663   1.104       .  S
C658        H664   1.111       .  S
C665        C666   1.403       .  A
C665        C670   1.411       .  A
C665        H672   1.084       .  S
C666        C667   1.416       .  A
C667        C668   1.404       .  A
C667        C674   1.508       .  S
C668        C669   1.401       .  A
C668        H673   1.084       .  S
C669        C670   1.417       .  A
C670        C671   1.506       .  S
C671        H675   1.111       .  S
C671        H676   1.110       .  S
C671        H677   1.110       .  S
C674        H678   1.110       .  S
C674        H679   1.107       .  S
C674        H680   1.111       .  S
C681        C682   1.403   1_545  A
C681        C686   1.416       .  A
C681        H688   1.084       .  S
C682        C683   1.415       .  A
C683        C684   1.409       .  A
C683        C690   1.508       .  S
C684        C685   1.407       .  A
C684        H689   1.084       .  S
C685        C686   1.427   1_565  A
C686        C687   1.508       .  S
C687        H691   1.111       .  S
C687        H692   1.110       .  S
C687        H693   1.110       .  S
C690        H694   1.109       .  S
C690        H695   1.110       .  S
C690        H696   1.109       .  S
C697        C698   1.405       .  A
C697        C702   1.407       .  A
C697        H704   1.083       .  S
C698        C699   1.426   1_545  A
C699        C700   1.414       .  A
C699        C706   1.507       .  S
C700        C701   1.402   1_565  A
C700        H705   1.084       .  S
C701        C702   1.416       .  A
C702        C703   1.510       .  S
C703        H707   1.111       .  S
C703        H708   1.110       .  S
C703        H709   1.109       .  S
C706        H710   1.110       .  S
C706        H711   1.109       .  S
C706        H712   1.111       .  S
C713        C714   1.386       .  A
C713        C718   1.396       .  A
C713        H720   1.085       .  S
C714        C715   1.426   1_655  A
C715        C716   1.394       .  A
C715        C722   1.508       .  S
C716        C717   1.386   1_455  A
C716        H721   1.085       .  S
C717        C718   1.426       .  A
C718        C719   1.506       .  S
C719        H723   1.109       .  S
C719        H724   1.108       .  S
C719        H725   1.108       .  S
C722        H726   1.108       .  S
C722        H727   1.106       .  S
C722        H728   1.111       .  S
C729        C730   1.404       .  A
C729        C734   1.406       .  A
C729        H736   1.084       .  S
C730        C731   1.413   1_455  A
C731        C732   1.394       .  A
C731        C738   1.503       .  S
C732        C733   1.399   1_655  A
C732        H737   1.086       .  S
C733        C734   1.415       .  A
C734        C735   1.507       .  S
C735        H739   1.111       .  S
C735        H740   1.111       .  S
C735        H741   1.110       .  S
C738        H742   1.109       .  S
C738        H743   1.108       .  S
C738        H744   1.111       .  S
C745        C746   1.410       .  A
C745        C750   1.408       .  A
C745        H752   1.084       .  S
C746        C747   1.414   1_545  A
C747        C748   1.404       .  A
C747        C754   1.508       .  S
C748        C749   1.408   1_565  A
C748        H753   1.084       .  S
C749        C750   1.413       .  A
C750        C751   1.506       .  S
C751        H755   1.111       .  S
C751        H756   1.110   1_455  S
C751        H757   1.110       .  S
C754        H758   1.109   1_455  S
C754        H759   1.110       .  S
C754        H760   1.111       .  S
C761        C762   1.407   1_445  A
C761        C766   1.403       .  A
C761        H768   1.083       .  S
C762        C763   1.417       .  A
C763        C764   1.411       .  A
C763        C770   1.506       .  S
C764        C765   1.410       .  A
C764        H769   1.083       .  S
C765        C766   1.419   1_665  A
C766        C767   1.509       .  S
C767        H771   1.111       .  S
C767        H772   1.110       .  S
C767        H773   1.110       .  S
C770        H774   1.110       .  S
C770        H775   1.110       .  S
C770        H776   1.111       .  S
C777        C778   1.404       .  A
C777        C782   1.412       .  A
C777        H784   1.084       .  S
C778        C779   1.421       .  A
C779        C780   1.417       .  A
C779        C786   1.506       .  S
C780        C781   1.407       .  A
C780        H785   1.083       .  S
C781        C782   1.424       .  A
C782        C783   1.506       .  S
C783        H787   1.110   1_554  S
C783        H788   1.110       .  S
C783        H789   1.110   1_554  S
C786        H790   1.110       .  S
C786        H791   1.111       .  S
C786        H792   1.111       .  S
C793        C794   1.402       .  A
C793        C798   1.415       .  A
C793        H800   1.084       .  S
C794        C795   1.412       .  A
C795        C796   1.414       .  A
C795        C802   1.502       .  S
C796        C797   1.410       .  A
C796        H801   1.084       .  S
C797        C798   1.428       .  A
C798        C799   1.508       .  S
C799        H803   1.111       .  S
C799        H804   1.110       .  S
C799        H805   1.110       .  S
C802        H806   1.110       .  S
C802        H807   1.104       .  S
C802        H808   1.111       .  S
C809        C810   1.400       .  A
C809        C814   1.408       .  A
C809        H816   1.084       .  S
C810        C811   1.410   1_565  A
C811        C812   1.408       .  A
C811        C818   1.506       .  S
C812        C813   1.408   1_545  A
C812        H817   1.084       .  S
C813        C814   1.424       .  A
C814        C815   1.509       .  S
C815        H819   1.111       .  S
C815        H820   1.111       .  S
C815        H821   1.109       .  S
C818        H822   1.110       .  S
C818        H823   1.110       .  S
C818        H824   1.111       .  S
C825        C826   1.395       .  A
C825        C830   1.398       .  A
C825        H832   1.079       .  S
C826        C827   1.410   1_545  A
C827        C828   1.413       .  A
C827        C834   1.504       .  S
C828        C829   1.410   1_565  A
C828        H833   1.084       .  S
C829        C830   1.414       .  A
C830        C831   1.504       .  S
C831        H835   1.109       .  S
C831        H836   1.109       .  S
C831        H837   1.111   1_554  S
C834        H838   1.110       .  S
C834        H839   1.110       .  S
C834        H840   1.111       .  S
C841        C842   1.407       .  A
C841        C846   1.406       .  A
C841        H848   1.085   1_556  S
C842        C843   1.416   1_655  A
C843        C844   1.416       .  A
C843        C850   1.505       .  S
C844        C845   1.407   1_455  A
C844        H849   1.084       .  S
C845        C846   1.416       .  A
C846        C847   1.509   1_556  S
C847        H851   1.110   1_655  S
C847        H852   1.107       .  S
C847        H853   1.110       .  S
C850        H854   1.111       .  S
C850        H855   1.109   1_455  S
C850        H856   1.111       .  S
C857        C858   1.402   1_655  A
C857        C862   1.414       .  A
C857        H864   1.084       .  S
C858        C859   1.414       .  A
C859        C860   1.412       .  A
C859        C866   1.507       .  S
C860        C861   1.410   1_455  A
C860        H865   1.083       .  S
C861        C862   1.426       .  A
C862        C863   1.507       .  S
C863        H867   1.111       .  S
C863        H868   1.107       .  S
C863        H869   1.110       .  S
C866        H870   1.111       .  S
C866        H871   1.110       .  S
C866        H872   1.111       .  S
