geometry optimzed in LAMMPS
_audit_creation_date              2020-11-30 
_audit_creation_method            'lammps2cif' 
_symmetry_space_group_name_H-M    'P1' 
_symmetry_Int_Tables_number       1 
_symmetry_cell_setting            triclinic 
loop_ 
_symmetry_equiv_pos_as_xyz 
  x,y,z 
_cell_length_a                    29.97971028 
_cell_length_b                    48.71649881571267 
_cell_length_c                    46.028455968072635 
_cell_angle_alpha                 90.078300792016 
_cell_angle_beta                  89.27882675882653 
_cell_angle_gamma                 89.79458205090928 
loop_ 
_atom_site_label 
_atom_site_type_symbol 
_atom_site_fract_x 
_atom_site_fract_y 
_atom_site_fract_z 
_atom_site_charge 
C1          C  0.99858022  0.47606108  0.01297444     0.02100
C2          C  0.45889035  0.48602084  0.00289620     0.02100
C3          C  0.45509306  0.00489634  0.47826781     0.02100
C4          C  0.49586366  0.01188759  0.46364471     0.02100
C5          C  0.04054394  0.00323273  0.47474456     0.02100
C6          C  0.03951678  0.48439608  0.99973519     0.02100
O7          O  0.46918034  0.09792035  0.27380601    -0.82000
C8          C  0.00064923  0.16268369  0.37722197     0.97300
O9          O  0.46718795  0.15041479  0.36967064    -0.71100
O10         O  0.42958452  0.16211960  0.32023362    -0.74700
Al11       Al  0.44906293  0.12885970  0.33634855     1.49000
C12         C  0.42641196  0.16711476  0.29361448     0.92600
O13         O  0.03248606  0.16514202  0.27642693    -0.81000
O14         O  0.07726277  0.10123252  0.31581781    -0.74500
Al15       Al  0.50146932  0.13181273  0.27811163     1.90100
O16         O  0.07857878  0.15833600  0.31233405    -0.73600
O17         O  0.03359873  0.10409554  0.36538199    -0.73400
O18         O  0.03537376  0.16110980  0.36172739    -0.79100
O19         O  0.46228512  0.09544417  0.35502930    -0.77300
O20         O  0.00123012  0.12987202  0.31682133    -1.13400
O21         O  0.41912533  0.10646657  0.30769636    -0.72600
C22         C  0.43221297  0.09246276  0.28596412     0.98100
C23         C  0.06621570  0.17222979  0.29066205     0.94500
Al24       Al  0.05190696  0.13100797  0.33677360     1.55600
O25         O  0.44800982  0.15320368  0.27502674    -0.77300
C26         C  0.49672111  0.08979493  0.36913537     0.98700
C27         C  0.08009671  0.09682272  0.28890666     0.93500
O28         O  0.05636493  0.11036167  0.27163382    -0.82600
C29         C  0.50014447  0.21843863  0.49114273     0.02100
C30         C  0.45943188  0.22832228  0.50374097     0.02100
C31         C  0.45841472  0.24824098  0.02919139     0.02100
C32         C  0.50042664  0.25690064  0.04075071     0.02100
C33         C  0.04101991  0.24815058  0.02732143     0.02100
C34         C  0.03781847  0.22568960  0.50538239     0.02100
O35         O  0.03555947  0.34702032  0.21893261    -0.82000
C36         C  0.50110017  0.41556287  0.12281847     0.97300
O37         O  0.03264165  0.40232373  0.12745669    -0.71100
O38         O  0.07035926  0.41385047  0.17718704    -0.74700
Al39       Al  0.05218019  0.38072973  0.15913770     1.49000
C40         C  0.07149426  0.41841874  0.20417644     0.92600
O41         O  0.46174218  0.41154801  0.22110356    -0.81000
O42         O  0.43010392  0.34664863  0.17841949    -0.74500
Al43       Al  0.00008203  0.37913298  0.21757118     1.90100
O44         O  0.41727605  0.40274223  0.18502270    -0.73600
O45         O  0.47201936  0.35740707  0.13009591    -0.73400
O46         O  0.46564586  0.41261060  0.13779967    -0.79100
O47         O  0.03858466  0.34802098  0.13883893    -0.77300
O48         O  0.50118555  0.38033258  0.17998277    -1.13400
O49         O  0.08485277  0.35866280  0.18578555    -0.72600
C50         C  0.07263367  0.34349056  0.20649673     0.98100
C51         C  0.42704023  0.41647088  0.20709113     0.94500
Al52       Al  0.45065669  0.37990449  0.15980993     1.55600
O53         O  0.05000365  0.40323582  0.22160100    -0.77300
C54         C  0.00373177  0.34444249  0.12412573     0.98700
C55         C  0.42927969  0.34021894  0.20506524     0.93500
O56         O  0.45028891  0.35490530  0.22286131    -0.82600
C57         C  0.25345906  0.01966967  0.27283996     0.02100
C58         C  0.21101330  0.01198392  0.26171279     0.02100
C59         C  0.20881521  0.49441531  0.23689527     0.02100
C60         C  0.24914981  0.48514593  0.22351195     0.02100
C61         C  0.29095853  0.49502383  0.23364682     0.02100
C62         C  0.29365079  0.01272306  0.25765937     0.02100
O63         O  0.19657918  0.34655692  0.02625175    -0.82000
C64         C  0.24297160  0.41389945  0.12130768     0.97300
O65         O  0.20844822  0.40858759  0.10699966    -0.71100
O66         O  0.16543005  0.39662775  0.05872772    -0.74700
Al67       Al  0.19612883  0.37479596  0.08727329     1.49000
C68         C  0.17799298  0.40893456  0.03582394     0.92600
O69         O  0.30111980  0.39229269  0.02168011    -0.81000
O70         O  0.33168325  0.35004209  0.06188727    -0.74500
Al71       Al  0.24885475  0.36981759  0.02880772     1.90100
O72         O  0.31837349  0.40690648  0.06484843    -0.73600
O73         O  0.28742267  0.34582739  0.11052370    -0.73400
O74         O  0.27906810  0.40137263  0.11580893    -0.79100
O75         O  0.21641431  0.35380250  0.11958835    -0.77300
O76         O  0.24809624  0.37354259  0.06763594    -1.13400
O77         O  0.17606167  0.34083581  0.07150959    -0.72600
C78         C  0.17403690  0.33377692  0.04524044     0.98100
C79         C  0.32179004  0.40897024  0.03765521     0.94500
Al80       Al  0.29966754  0.37596171  0.08640507     1.55600
O81         O  0.21467439  0.40273082  0.02362652    -0.77300
C82         C  0.25270345  0.34196388  0.12548151     0.98700
C83         C  0.31940742  0.33251505  0.04325479     0.93500
O84         O  0.28337847  0.33627063  0.02980702    -0.82600
C85         C  0.24705261  0.23710035  0.27523766     0.02100
C86         C  0.28847866  0.24281889  0.26106854     0.02100
C87         C  0.29130428  0.26245646  0.23836123     0.02100
C88         C  0.25087854  0.27320859  0.22715102     0.02100
C89         C  0.20955637  0.26773966  0.24134246     0.02100
C90         C  0.20692952  0.24801265  0.26378430     0.02100
O91         O  0.28071852  0.08977527  0.46808284    -0.82000
C92         C  0.24575462  0.16281212  0.37393717     0.97300
O93         O  0.28212320  0.15065722  0.37913683    -0.71100
O94         O  0.31746501  0.15900165  0.42978306    -0.74700
Al95       Al  0.30178312  0.12679088  0.40990195     1.49000
C96         C  0.31979646  0.16188816  0.45675846     0.92600
O97         O  0.21467916  0.15570208  0.46971831    -0.81000
O98         O  0.17986177  0.09091968  0.42505600    -0.74500
Al99       Al  0.24752207  0.12298747  0.46701702     1.90100
O100        O  0.16606060  0.14646698  0.43566274    -0.73600
O101        O  0.22191691  0.10274946  0.37703021    -0.73400
O102        O  0.21112479  0.15739292  0.38841468    -0.79100
O103        O  0.29229302  0.09528144  0.38728311    -0.77300
O104        O  0.24934175  0.12462081  0.42820471    -1.13400
O105        O  0.33221487  0.10268841  0.43668948    -0.72600
C106        C  0.31830604  0.08625088  0.45613834     0.98100
C107        C  0.17846655  0.16052215  0.45720906     0.94500
Al108      Al  0.19890337  0.12434372  0.40829070     1.55600
O109        O  0.29943191  0.14525086  0.47327195    -0.77300
C110        C  0.25865233  0.09087916  0.37201571     0.98700
C111        C  0.17457231  0.08626060  0.45172821     0.93500
O112        O  0.19467177  0.10061506  0.47024483    -0.82600
C113        C  0.26612979  0.20730531  0.35133573    -0.06000
C114        C  0.24328048  0.18243612  0.34951070    -0.00100
C115        C  0.21891616  0.17652528  0.32415971    -0.08700
C116        C  0.22438761  0.19360968  0.29980105    -0.06000
C117        C  0.24609594  0.21901257  0.30165499    -0.00100
C118        C  0.26515402  0.22668234  0.32871174    -0.08600
C119        C  0.28230999  0.25511532  0.33607357     0.61800
H120        H  0.28282306  0.21234953  0.37127975     0.12500
H121        H  0.20970559  0.18782704  0.27937838     0.12500
C122        C  0.18459106  0.15377048  0.32340982     0.62000
F123        F  0.25716416  0.26564549  0.35893656    -0.23100
F124        F  0.27978162  0.27343225  0.31334652    -0.20500
F125        F  0.32620580  0.25331944  0.34477379    -0.20100
F126        F  0.15270617  0.15873005  0.34469988    -0.20200
F127        F  0.20339730  0.12843722  0.32814242    -0.20500
F128        F  0.16373474  0.15270300  0.29692246    -0.23200
C129        C  0.27308120  0.31550130  0.20096693    -0.06000
C130        C  0.25107610  0.29017292  0.20025107    -0.00100
C131        C  0.23119363  0.28137960  0.17382537    -0.08700
C132        C  0.23054096  0.29957912  0.15029710    -0.06000
C133        C  0.25454972  0.32402630  0.15087487    -0.00100
C134        C  0.27893104  0.33120508  0.17579105    -0.08600
C135        C  0.31327727  0.35393550  0.17523524     0.61800
H136        H  0.28839729  0.32195499  0.22097651     0.12500
H137        H  0.21353393  0.29383597  0.13052963     0.12500
C138        C  0.21320552  0.25284078  0.16793998     0.62000
F139        F  0.33249114  0.35780674  0.20206380    -0.23100
F140        F  0.29425962  0.37830942  0.16719748    -0.20500
F141        F  0.34647819  0.34730069  0.15534770    -0.20100
F142        F  0.16881271  0.25459945  0.16041809    -0.20200
F143        F  0.21704632  0.23527173  0.19114305    -0.20500
F144        F  0.23669078  0.24139261  0.14483124    -0.23200
C145        C  0.23361207  0.42180366  0.17431742    -0.06000
C146        C  0.24076105  0.43306338  0.14663959    -0.00100
C147        C  0.24971378  0.46138649  0.14437180    -0.08700
C148        C  0.25086893  0.47751541  0.16987022    -0.06000
C149        C  0.24729397  0.46590512  0.19778218    -0.00100
C150        C  0.23982621  0.43712328  0.19994781    -0.08600
C151        C  0.24056738  0.42088712  0.22802221     0.61800
H152        H  0.22509062  0.40026679  0.17603856     0.12500
H153        H  0.25498926  0.49946120  0.16810717     0.12500
C154        C  0.25971008  0.47407290  0.11515290     0.62000
F155        F  0.27537927  0.40222696  0.22669275    -0.23100
F156        F  0.20006725  0.90582434  0.23060893    -0.20500
F157        F  0.24630307  0.43698567  0.25228965    -0.20100
F158        F  0.22457204  0.46969689  0.09656085    -0.20200
F159        F  0.29762125  0.46183762  0.10392845    -0.20500
F160        F  0.26718022  0.50203583  0.11706264    -0.23200
C161        C  0.26972961  0.06414619  0.29595799    -0.06000
C162        C  0.25566684  0.03688321  0.29946043    -0.00100
C163        C  0.24783146  0.02654641  0.32810894    -0.08700
C164        C  0.24752955  0.04518489  0.35129335    -0.06000
C165        C  0.26189846  0.07211323  0.34742309    -0.00100
C166        C  0.27772040  0.08089478  0.32001933    -0.08600
C167        C  0.30739722  0.10590227  0.31684791     0.61800
H168        H  0.27729938  0.07162078  0.27432219     0.12500
H169        H  0.23837221  0.03828910  0.37296372     0.12500
C170        C  0.24330622  0.99645697  0.33637459     0.62000
F171        F  0.32427943  0.10851150  0.28887442    -0.23100
F172        F  0.34265605  0.10322198  0.33563544    -0.20500
F173        F  0.28488574  0.12966201  0.32358885    -0.20100
F174        F  0.27771801  0.48854436  0.35308772    -0.20200
F175        F  0.24473700  0.97898043  0.31273360    -0.20500
F176        F  0.20400767  0.99244062  0.35170649    -0.23200
C177        C  0.13881694  0.33194148  0.23407926    -0.06000
C178        C  0.10352370  0.32259688  0.21727920    -0.00100
C179        C  0.10037186  0.29435228  0.21048852    -0.08700
C180        C  0.13523210  0.27688595  0.21896191    -0.06000
C181        C  0.17095556  0.28627469  0.23574693    -0.00100
C182        C  0.17142905  0.31416741  0.24472515    -0.08600
C183        C  0.20469236  0.32664718  0.26557244     0.61800
H184        H  0.14100523  0.35352893  0.23910001     0.12500
H185        H  0.13473199  0.25591057  0.21157882     0.12500
C186        C  0.06210546  0.28146293  0.19408977     0.62000
F187        F  0.22775778  0.34750537  0.25174328    -0.23100
F188        F  0.23518615  0.30807790  0.27621079    -0.20500
F189        F  0.18160679  0.33770131  0.28905668    -0.20100
F190        F  0.02910534  0.29994387  0.18669015    -0.18600
F191        F  0.04286866  0.26127146  0.21118988    -0.20500
F192        F  0.07847973  0.26946332  0.16891057    -0.23200
C193        C  0.38536366  0.29724099  0.19463993    -0.06000
C194        C  0.40183463  0.31589762  0.21539109    -0.00100
C195        C  0.39028839  0.31090332  0.24508561    -0.08700
C196        C  0.35468420  0.29288266  0.25153065    -0.06000
C197        C  0.33552162  0.27580941  0.23047267    -0.00100
C198        C  0.35461439  0.27627390  0.20204348    -0.08600
C199        C  0.34375096  0.25545154  0.17881453     0.61800
H200        H  0.39665796  0.29891678  0.17224921     0.12500
H201        H  0.34027452  0.29296422  0.27318096     0.12500
C202        C  0.41596221  0.32311647  0.27023341     0.62000
F203        F  0.32508646  0.26858914  0.15529468    -0.23100
F204        F  0.31482713  0.23542414  0.18865901    -0.20500
F205        F  0.38277314  0.24266744  0.16971543    -0.20100
F206        F  0.40850376  0.35093973  0.27236811    -0.20200
F207        F  0.46109444  0.31819124  0.26617663    -0.20500
F208        F  0.40351025  0.31142087  0.29651149    -0.23200
C209        C  0.39023895  0.46024411  0.19661947    -0.06000
C210        C  0.39703909  0.43866558  0.21609794    -0.00100
C211        C  0.37202581  0.43733942  0.24208126    -0.08700
C212        C  0.33932914  0.45724634  0.24705125    -0.06000
C213        C  0.33119058  0.47843934  0.22722114    -0.00100
C214        C  0.35802835  0.48063132  0.20180690    -0.08600
C215        C  0.35483889  0.50343600  0.17958679     0.61800
H216        H  0.40967247  0.46073435  0.17679968     0.12500
H217        H  0.31759212  0.45525057  0.26573154     0.12500
C218        C  0.37680001  0.41363200  0.26302027     0.62000
F219        F  0.34773571  0.49225543  0.15240896    -0.23100
F220        F  0.39468326  0.51766444  0.17881394    -0.20500
F221        F  0.32094211  0.52182159  0.18557320    -0.20100
F222        F  0.42012190  0.41215353  0.27285772    -0.20200
F223        F  0.36605503  0.38966746  0.24874066    -0.20500
F224        F  0.34876860  0.41625948  0.28701231    -0.23200
C225        C  0.11075197  0.46291717  0.19639847    -0.06000
C226        C  0.09985957  0.44111220  0.21528260    -0.00100
C227        C  0.11905271  0.44070861  0.24330000    -0.08700
C228        C  0.15414025  0.45873067  0.24883903    -0.06000
C229        C  0.16636833  0.47991020  0.22991017    -0.00100
C230        C  0.14252085  0.48299211  0.20368875    -0.08600
C231        C  0.14896448  0.50660163  0.18268907     0.61800
H232        H  0.09445443  0.46425488  0.17554831     0.12500
H233        H  0.17478832  0.45477396  0.26728150     0.12500
C234        C  0.10432611  0.42121720  0.26733750     0.62000
F235        F  0.16003674  0.49649464  0.15543354    -0.23100
F236        F  0.18178521  0.52460921  0.19117515    -0.20500
F237        F  0.10867872  0.02111943  0.18330390    -0.20100
F238        F  0.11190944  0.39440002  0.25912154    -0.20200
F239        F  0.05941937  0.42508487  0.27333177    -0.20500
F240        F  0.12712362  0.42569250  0.29289346    -0.23200
C241        C  0.10209083  0.22120886  0.47158399    -0.06000
C242        C  0.07980721  0.21171668  0.49666063    -0.00100
C243        C  0.09395643  0.18675693  0.50986002    -0.08700
C244        C  0.12951200  0.17244581  0.49728057    -0.06000
C245        C  0.14775602  0.18019115  0.47063043    -0.00100
C246        C  0.13481599  0.20505972  0.45748984    -0.08600
C247        C  0.15490347  0.21400275  0.42867532     0.61800
H248        H  0.09125360  0.24033417  0.46196692     0.12500
H249        H  0.14097003  0.15361535  0.50733955     0.12500
C250        C  0.07258390  0.17293728  0.53608628     0.62000
F251        F  0.13958772  0.23964628  0.42044169    -0.23100
F252        F  0.14364454  0.19540566  0.40731869    -0.20500
F253        F  0.20085523  0.21510623  0.43072201    -0.20100
F254        F  0.03583494  0.18673902  0.54682610    -0.20200
F255        F  0.10365908  0.17043205  0.55790846    -0.20500
F256        F  0.05932202  0.14683449  0.52861454    -0.23200
C257        C  0.40326995  0.22035751  0.46581701    -0.06000
C258        C  0.41691779  0.21552349  0.49435481    -0.00100
C259        C  0.39277327  0.19649586  0.51177478    -0.08700
C260        C  0.35809853  0.18167020  0.49909030    -0.06000
C261        C  0.34894800  0.18348373  0.46933401    -0.00100
C262        C  0.37003803  0.20453636  0.45270169    -0.08600
C263        C  0.35775783  0.21090051  0.42152716     0.61800
H264        H  0.42102345  0.23567593  0.45323863     0.12500
H265        H  0.34043733  0.16502863  0.01562740     0.12500
C266        C  0.40214169  0.18859542  0.04698980     0.62000
F267        F  0.37711040  0.23501278  0.41173616    -0.23100
F268        F  0.31203841  0.21403989  0.41989374    -0.20500
F269        F  0.37207369  0.19001021  0.40324957    -0.20100
F270        F  0.37082850  0.20166553  0.06445698    -0.20200
F271        F  0.44425749  0.19638503  0.05519041    -0.20500
F272        F  0.39917721  0.16059260  0.05176128    -0.23200
C273        C  0.07801388  0.29184304  0.01380863    -0.06000
C274        C  0.08146919  0.26697631  0.02915715    -0.00100
C275        C  0.11980970  0.26320572  0.04697031    -0.08700
C276        C  0.14940902  0.28536621  0.05112731    -0.06000
C277        C  0.14410693  0.31054270  0.03702198    -0.00100
C278        C  0.10901324  0.31333274  0.01696420    -0.08600
C279        C  0.10424822  0.33901952  0.99908516     0.61800
H280        H  0.04995342  0.29446577  0.99945509     0.12500
H281        H  0.17787400  0.28297318  0.06520431     0.12500
C282        C  0.13397761  0.23590131  0.05922960     0.62000
F283        F  0.06423827  0.33989746  0.98440085    -0.23100
F284        F  0.13872319  0.33991645  0.97891633    -0.20500
F285        F  0.10624691  0.36164714  0.01702636    -0.20100
F286        F  0.15961902  0.22471504  0.55519204    -0.20200
F287        F  0.09782254  0.22027147  0.06627341    -0.20500
F288        F  0.15871130  0.23914754  0.08421516    -0.23200
C289        C  0.39696048  0.27774883  0.00920552    -0.06000
C290        C  0.41573779  0.26530595  0.03399951    -0.00100
C291        C  0.39621783  0.27247735  0.06155828    -0.08700
C292        C  0.36422935  0.29384665  0.06316360    -0.06000
C293        C  0.34792783  0.30728201  0.03849313    -0.00100
C294        C  0.36179868  0.29728732  0.01086896    -0.08600
C295        C  0.33961614  0.30688028  0.98325513     0.61800
H296        H  0.41118130  0.27273459  0.98817835     0.12500
H297        H  0.35162802  0.30021639  0.08433292     0.12500
C298        C  0.41095151  0.25837943  0.58778955     0.62000
F299        F  0.35870068  0.29497941  0.95872269    -0.23100
F300        F  0.34308447  0.33493281  0.98057214    -0.20500
F301        F  0.29501274  0.29977203  0.98416832    -0.20100
F302        F  0.43675398  0.23767870  0.08723463    -0.20200
F303        F  0.37320866  0.24721823  0.60061554    -0.20500
F304        F  0.42850375  0.27743292  0.60673654    -0.23200
C305        C  0.48547822  0.30460371  0.05603619    -0.06000
C306        C  0.00103767  0.27984934  0.06141487    -0.00100
C307        C  0.01943691  0.27587627  0.08947926    -0.08700
C308        C  0.02433072  0.29863146  0.10751408    -0.06000
C309        C  0.00256278  0.32323725  0.10157122    -0.00100
C310        C  0.48053138  0.32500466  0.07718211    -0.08600
C311        C  0.44344135  0.34600777  0.07328558     0.61800
H312        H  0.47172073  0.30760070  0.03464580     0.12500
H313        H  0.04072091  0.29616437  0.12818130     0.12500
C314        C  0.02963641  0.24847337  0.10339004     0.62000
F315        F  0.42574016  0.34507068  0.04568113    -0.23100
F316        F  0.45800593  0.37219618  0.07772618    -0.20500
F317        F  0.40971036  0.34062564  0.09317975    -0.20100
F318        F  0.07388042  0.24763832  0.11136981    -0.20200
F319        F  0.02046838  0.22651793  0.08566011    -0.20500
F320        F  0.00368745  0.24570674  0.12829817    -0.23200
C321        C  0.10785417  0.21476169  0.30313954    -0.06000
C322        C  0.09341663  0.19637602  0.28167317    -0.00100
C323        C  0.10995353  0.19953279  0.25298703    -0.08700
C324        C  0.14694984  0.21667714  0.24836305    -0.06000
C325        C  0.16317836  0.23420355  0.27010149    -0.00100
C326        C  0.14072368  0.23475658  0.29738877    -0.08600
C327        C  0.14985594  0.25563406  0.32094054     0.61800
H328        H  0.09336228  0.21341230  0.32466759     0.12500
H329        H  0.16427516  0.21598001  0.22766347     0.12500
C330        C  0.08886405  0.18514297  0.22738355     0.62000
F331        F  0.11104957  0.27016619  0.32685307    -0.23100
F332        F  0.18242173  0.27424075  0.31304532    -0.20500
F333        F  0.16294749  0.24230630  0.34595032    -0.20100
F334        F  0.04481046  0.19334213  0.22529235    -0.20200
F335        F  0.09045154  0.15713617  0.23099085    -0.20500
F336        F  0.11023502  0.19143742  0.20140593    -0.23200
C337        C  0.36223978  0.17949779  0.26422207    -0.06000
C338        C  0.39441950  0.18791559  0.28393905    -0.00100
C339        C  0.39390646  0.21509611  0.29468488    -0.08700
C340        C  0.36007081  0.23293479  0.28547221    -0.06000
C341        C  0.32670396  0.22423548  0.26650198    -0.00100
C342        C  0.32788343  0.19695049  0.25546803    -0.08600
C343        C  0.29387551  0.18442218  0.23515074     0.61800
H344        H  0.36277835  0.15852252  0.25647512     0.12500
H345        H  0.35843534  0.25344045  0.29415924     0.12500
C346        C  0.42888400  0.22519555  0.31564456     0.62000
F347        F  0.31544256  0.17553972  0.21009998    -0.23100
F348        F  0.26047810  0.20224068  0.22715756    -0.20500
F349        F  0.27428796  0.16200385  0.24855940    -0.20100
F350        F  0.47098626  0.22015900  0.30415155    -0.20200
F351        F  0.42416495  0.21177062  0.34193601    -0.20500
F352        F  0.42506638  0.25310736  0.32084885    -0.23200
C353        C  0.39340176  0.04820554  0.29545229    -0.06000
C354        C  0.40350668  0.06921244  0.27573040    -0.00100
C355        C  0.38300505  0.06851942  0.24817287    -0.08700
C356        C  0.34881664  0.04909352  0.24301660    -0.06000
C357        C  0.33679916  0.02860344  0.26329002    -0.00100
C358        C  0.36229146  0.02728700  0.28929878    -0.08600
C359        C  0.35923030  0.50434337  0.31059318     0.61800
H360        H  0.41039258  0.04804131  0.31613127     0.12500
H361        H  0.32922777  0.05101361  0.22365945     0.12500
C362        C  0.39611470  0.08873778  0.22463592     0.62000
F363        F  0.39997808  0.49094484  0.31112289    -0.23100
F364        F  0.32732480  0.48547536  0.30373520    -0.20500
F365        F  0.34843050  0.01548545  0.33821242    -0.20100
F366        F  0.44110886  0.08597541  0.21827386    -0.20200
F367        F  0.38760991  0.11517958  0.23398033    -0.20500
F368        F  0.37283250  0.08434705  0.19926422    -0.23200
C369        C  0.10822019  0.04976739  0.29417967    -0.06000
C370        C  0.10992677  0.07426344  0.27844881    -0.00100
C371        C  0.14074776  0.07637486  0.25493996    -0.08700
C372        C  0.17208924  0.05510081  0.25052457    -0.06000
C373        C  0.17223866  0.03108653  0.26743770    -0.00100
C374        C  0.13808806  0.02798317  0.28903871    -0.08600
C375        C  0.12972423  0.00280390  0.30725935     0.61800
H376        H  0.08299626  0.04769082  0.31116366     0.12500
H377        H  0.19788281  0.05734932  0.23402445     0.12500
C378        C  0.14158392  0.10093765  0.23491810     0.62000
F379        F  0.09016981  0.99082173  0.29885218    -0.23100
F380        F  0.12589227  0.01017566  0.33624388    -0.20500
F381        F  0.16303381  0.98382702  0.30461780    -0.20100
F382        F  0.15065031  0.12423408  0.25073988    -0.20200
F383        F  0.10075392  0.10352118  0.22156400    -0.20500
F384        F  0.17389871  0.09846808  0.21328888    -0.23200
C385        C  0.50807025  0.21877369  0.43678832    -0.06000
C386        C  0.50048505  0.20316786  0.46221454    -0.00100
C387        C  0.99043935  0.17320195  0.45932979    -0.08700
C388        C  0.99183259  0.16197026  0.43108684    -0.06000
C389        C  0.00110893  0.17747548  0.40615286    -0.00100
C390        C  0.50879127  0.20703597  0.40854835    -0.08600
C391        C  0.51509430  0.22654575  0.38323351     0.61800
H392        H  0.51274070  0.24073587  0.43901941     0.12500
H393        H  0.98808459  0.14013234  0.42881746     0.12500
C394        C  0.97956469  0.15318607  0.48327757     0.62000
F395        F  0.47989603  0.24498143  0.38295438    -0.23100
F396        F  0.51705493  0.21344657  0.35665738    -0.20500
F397        F  0.55435929  0.24094293  0.38667408    -0.20100
F398        F  0.93653060  0.14393574  0.47987134    -0.20200
F399        F  0.00823953  0.13094222  0.48163140    -0.20500
F400        F  0.98308953  0.16460188  0.51028127    -0.23200
C401        C  0.40739445  0.04428479  0.49348653    -0.06000
C402        C  0.41380005  0.02223382  0.47398472    -0.00100
C403        C  0.38368429  0.01967392  0.45047516    -0.08700
C404        C  0.35153087  0.04044345  0.44606479    -0.06000
C405        C  0.34699199  0.06289208  0.46493337    -0.00100
C406        C  0.37310847  0.06383946  0.49018431    -0.08600
C407        C  0.36522171  0.08572844  0.51317779     0.61800
H408        H  0.43151931  0.04728249  0.51038981     0.12500
H409        H  0.33024517  0.03943790  0.42720489     0.12500
C410        C  0.38273167  0.49400242  0.42925098     0.62000
F411        F  0.39411596  0.08293135  0.53622655    -0.23100
F412        F  0.32208923  0.08353979  0.52392568    -0.20500
F413        F  0.37099874  0.11153567  0.50135869    -0.20100
F414        F  0.34278146  0.48000474  0.43156368    -0.20200
F415        F  0.41685103  0.47562044  0.43386015    -0.20500
F416        F  0.38710066  0.50417959  0.40132474    -0.23200
C417        C  0.07732902  0.04688571  0.48513879    -0.06000
C418        C  0.07974209  0.02192696  0.46986106    -0.00100
C419        C  0.11647674  0.01757178  0.45039252    -0.08700
C420        C  0.14793564  0.03867176  0.44654508    -0.06000
C421        C  0.14396905  0.06394432  0.46083584    -0.00100
C422        C  0.10863226  0.06797277  0.48102164    -0.08600
C423        C  0.10661893  0.09167408  0.00282417     0.61800
H424        H  0.05348590  0.04684033  0.00512438     0.12500
H425        H  0.17558396  0.03566031  0.43141061     0.12500
C426        C  0.12521812  0.99186416  0.43289400     0.62000
F427        F  0.07070919  0.09064999  0.02199868    -0.23100
F428        F  0.10046789  0.11377455  0.98451641    -0.20500
F429        F  0.13842331  0.09971429  0.51461444    -0.20100
F430        F  0.13326130  0.99869277  0.40412596    -0.20200
F431        F  0.09015173  0.97399116  0.43375308    -0.20500
F432        F  0.16262337  0.97881698  0.44353831    -0.23200
C433        C  0.01235314  0.04206416  0.38649281    -0.06000
C434        C  0.49390947  0.06897640  0.39220416    -0.00100
C435        C  0.47574191  0.07574343  0.41964641    -0.08700
C436        C  0.48390435  0.05804539  0.44286403    -0.06000
C437        C  0.49530520  0.03054896  0.43788204    -0.00100
C438        C  0.00903285  0.02181174  0.40831067    -0.08600
C439        C  0.00421199  0.49246105  0.39931809     0.61800
H440        H  0.02362297  0.03650111  0.36478416     0.12500
H441        H  0.47599129  0.06467028  0.46474980     0.12500
C442        C  0.43471383  0.09372676  0.42196333     0.62000
F443        F  0.96764681  0.48893476  0.38169766    -0.23100
F444        F  0.50241744  0.47320437  0.42100993    -0.20500
F445        F  0.04211440  0.48674932  0.38296139    -0.20100
F446        F  0.40000077  0.07967868  0.40938332    -0.20200
F447        F  0.93611177  0.11555400  0.40504597    -0.20500
F448        F  0.42404682  0.09956657  0.45055594    -0.23200
C449        C  0.35927454  0.45398378  0.04292130    -0.06000
C450        C  0.35111533  0.43104982  0.02526996    -0.00100
C451        C  0.37327944  0.42951223  0.99788638    -0.08700
C452        C  0.40620544  0.44912378  0.99115768    -0.06000
C453        C  0.41739318  0.47039874  0.01032571    -0.00100
C454        C  0.39159678  0.47380449  0.03609125    -0.08600
C455        C  0.39524704  0.99615871  0.05458400     0.61800
H456        H  0.34086234  0.45615628  0.06293095     0.12500
H457        H  0.42563776  0.44695925  0.97137894     0.12500
C458        C  0.36469692  0.40660101  0.97647241     0.62000
F459        F  0.39555277  0.99102519  0.58327742    -0.23100
F460        F  0.35209364  0.01454969  0.55250884    -0.20500
F461        F  0.43009365  0.01324767  0.04770782    -0.20100
F462        F  0.32029858  0.40673015  0.96863810    -0.20200
F463        F  0.37558509  0.38191308  0.98920844    -0.20500
F464        F  0.39007665  0.40920231  0.95128429    -0.23200
C465        C  0.13697920  0.45305699  0.04215531    -0.06000
C466        C  0.14896526  0.43099625  0.02374861    -0.00100
C467        C  0.12982110  0.42985264  0.99567777    -0.08700
C468        C  0.09599690  0.44869434  0.98884174    -0.06000
C469        C  0.08210855  0.46981651  0.00760629    -0.00100
C470        C  0.10504372  0.47306316  0.03419751    -0.08600
C471        C  0.09809811  0.49717280  0.05461880     0.61800
H472        H  0.15264184  0.45461797  0.06319475     0.12500
H473        H  0.08598008  0.44769521  0.46823715     0.12500
C474        C  0.16073224  0.41657448  0.47180506     0.62000
F475        F  0.13772035  0.51146013  0.05674949    -0.23100
F476        F  0.08609095  0.48775491  0.08193374    -0.20500
F477        F  0.06570880  0.51521521  0.04531120    -0.20100
F478        F  0.15770614  0.38902523  0.47804496    -0.20200
F479        F  0.15620273  0.42230310  0.94772838    -0.20500
F480        F  0.14165499  0.42089979  0.44495095    -0.23200
C481        C  0.49928290  0.47490440  0.06842736    -0.06000
C482        C  0.50057023  0.46051955  0.04186908    -0.00100
C483        C  0.00676914  0.43148598  0.04200797    -0.08700
C484        C  0.01060127  0.41911691  0.06934543    -0.06000
C485        C  0.50205425  0.43239989  0.09584271    -0.00100
C486        C  0.49819100  0.46126451  0.09545910    -0.08600
C487        C  0.49487238  0.47752864  0.12338180     0.61800
H488        H  0.49907992  0.49705205  0.06790213     0.12500
H489        H  0.02180166  0.39799090  0.07041288     0.12500
C490        C  0.01040294  0.41266652  0.01590854     0.62000
F491        F  0.49658268  0.50554498  0.11850474    -0.23100
F492        F  0.52958222  0.47051202  0.14145495    -0.20500
F493        F  0.45491328  0.47167258  0.13698543    -0.20100
F494        F  0.05108992  0.39966984  0.01632837    -0.20200
F495        F  0.00642953  0.42595318  0.98967072    -0.20500
F496        F  0.97738247  0.39299631  0.01767401    -0.23200
C497        C  0.00092405  0.47609799  0.51305469     0.02100
C498        C  0.45577585  0.48428738  0.50080196     0.02100
C499        C  0.45729118  0.00268702  0.97641844     0.02100
C500        C  0.49854164  0.01005342  0.96263664     0.02100
C501        C  0.03931729  0.00271986  0.97573139     0.02100
C502        C  0.04179441  0.48435323  0.49962314     0.02100
O503        O  0.47026580  0.09820295  0.77742441    -0.82000
C504        C  0.00290524  0.16250466  0.88002438     0.97300
O505        O  0.47035873  0.15097172  0.87291606    -0.71100
O506        O  0.43283319  0.16396246  0.82313218    -0.74700
Al507      Al  0.45139004  0.13023946  0.83913569     1.49000
C508        C  0.42880913  0.16811999  0.79633519     0.92600
O509        O  0.03367984  0.16619606  0.77938652    -0.81000
O510        O  0.07751210  0.10094824  0.81749052    -0.74500
Al511      Al  0.50288361  0.13207242  0.78065236     1.90100
O512        O  0.08001781  0.15826607  0.81497293    -0.73600
O513        O  0.03370519  0.10362535  0.86714931    -0.73400
O514        O  0.03761769  0.16062423  0.86455929    -0.79100
O515        O  0.46447850  0.09655132  0.85712344    -0.77300
O516        O  0.00255735  0.13067143  0.81915315    -1.13400
O517        O  0.41990759  0.10846161  0.81056026    -0.72600
C518        C  0.43285802  0.09361694  0.78941843     0.98100
C519        C  0.06764467  0.17269744  0.79364864     0.94500
Al520      Al  0.05307005  0.13077136  0.83904465     1.55600
O521        O  0.44960647  0.15356416  0.77788822    -0.77300
C522        C  0.49920402  0.09056446  0.87081714     0.98700
C523        C  0.08097480  0.09743027  0.79045463     0.93500
O524        O  0.05795515  0.11174994  0.77348420    -0.82600
C525        C  0.50006077  0.21717058  0.99556237     0.02100
C526        C  0.45898427  0.22703802  0.00767274     0.02100
C527        C  0.45948892  0.24940386  0.52536845     0.02100
C528        C  0.50194378  0.25841663  0.53595559     0.02100
C529        C  0.03788478  0.24668463  0.52682867     0.02100
C530        C  0.04026088  0.22617062  0.00711808     0.02100
O531        O  0.03784396  0.34729827  0.72041479    -0.82000
C532        C  0.50036704  0.41339082  0.61987334     0.97300
O533        O  0.03511194  0.39825809  0.62545393    -0.71100
O534        O  0.07664383  0.41014964  0.67424915    -0.74700
Al535      Al  0.05401759  0.37695452  0.65785149     1.49000
C536        C  0.07812125  0.41600774  0.70097110     0.92600
O537        O  0.46732186  0.41150357  0.71871372    -0.81000
O538        O  0.43031368  0.34584725  0.67804344    -0.74500
Al539      Al  0.00333662  0.37968904  0.71711715     1.90100
O540        O  0.42001303  0.40259452  0.68419495    -0.73600
O541        O  0.47164000  0.35539615  0.62904296    -0.73400
O542        O  0.46555190  0.41059448  0.63546167    -0.79100
O543        O  0.03666815  0.34386690  0.63915602    -0.77300
O544        O  0.50252036  0.37905916  0.67771475    -1.13400
O545        O  0.08555172  0.35468290  0.68499276    -0.72600
C546        C  0.07387340  0.34177312  0.70750444     0.98100
C547        C  0.43228635  0.41716945  0.70524678     0.94500
Al548      Al  0.45121662  0.37860898  0.65854110     1.55600
O549        O  0.05432971  0.40312569  0.71922879    -0.77300
C550        C  0.00107235  0.34078087  0.62512215     0.98700
C551        C  0.42887098  0.34062669  0.70493118     0.93500
O552        O  0.45117767  0.35537357  0.72192999    -0.82600
C553        C  0.25396267  0.02022719  0.77498889     0.02100
C554        C  0.21214293  0.01274360  0.76295523     0.02100
C555        C  0.21295439  0.49422337  0.73492439     0.02100
C556        C  0.25425636  0.48534608  0.72243773     0.02100
C557        C  0.29571095  0.49508877  0.73372671     0.02100
C558        C  0.29508240  0.01308512  0.76091982     0.02100
O559        O  0.19443764  0.34500287  0.52602783    -0.82000
C560        C  0.24057805  0.41210718  0.62234418     0.97300
O561        O  0.20585992  0.40685284  0.60830483    -0.71100
O562        O  0.16464545  0.39668749  0.55942913    -0.74700
Al563      Al  0.19340716  0.37350382  0.58755615     1.49000
C564        C  0.17798301  0.40865535  0.53646877     0.92600
O565        O  0.29927225  0.39029476  0.52244713    -0.81000
O566        O  0.32949216  0.34866409  0.56247559    -0.74500
Al567      Al  0.24677892  0.36801493  0.52917621     1.90100
O568        O  0.31583805  0.40553632  0.56552273    -0.73600
O569        O  0.28464719  0.34409218  0.61082456    -0.73400
O570        O  0.27643485  0.39963853  0.61630377    -0.79100
O571        O  0.21320938  0.35126663  0.61948385    -0.77300
O572        O  0.24550546  0.37199217  0.56803458    -1.13400
O573        O  0.17189339  0.34019711  0.57091138    -0.72600
C574        C  0.17064302  0.33277738  0.54471035     0.98100
C575        C  0.31984189  0.40711001  0.53832778     0.94500
Al576      Al  0.29701385  0.37439897  0.58692012     1.55600
O577        O  0.21309773  0.40078713  0.52345093    -0.77300
C578        C  0.24979823  0.33965275  0.62548987     0.98700
C579        C  0.31739603  0.33105578  0.54390151     0.93500
O580        O  0.28103999  0.33446445  0.53073299    -0.82600
C581        C  0.24941917  0.23651255  0.77724848     0.02100
C582        C  0.29014731  0.24211414  0.76215482     0.02100
C583        C  0.29209460  0.26197640  0.73968042     0.02100
C584        C  0.25141883  0.27254793  0.72885307     0.02100
C585        C  0.21079636  0.26712645  0.74378009     0.02100
C586        C  0.20893996  0.24776412  0.76661877     0.02100
O587        O  0.28185782  0.08718382  0.96893319    -0.82000
C588        C  0.24773336  0.16295989  0.87696427     0.97300
O589        O  0.28363235  0.15037521  0.88205571    -0.71100
O590        O  0.31890770  0.15733367  0.93281830    -0.74700
Al591      Al  0.30253208  0.12582417  0.91217421     1.49000
C592        C  0.32124502  0.15977869  0.95983708     0.92600
O593        O  0.21657645  0.15349489  0.97412304    -0.81000
O594        O  0.17842050  0.09158837  0.92738855    -0.74500
Al595      Al  0.24910109  0.12073003  0.96958516     1.90100
O596        O  0.16846362  0.14709786  0.93900491    -0.73600
O597        O  0.22113892  0.10304859  0.87980573    -0.73400
O598        O  0.21301381  0.15781471  0.89147791    -0.79100
O599        O  0.29184906  0.09506463  0.88890692    -0.77300
O600        O  0.25018628  0.12371080  0.93079915    -1.13400
O601        O  0.33300284  0.10094909  0.93782540    -0.72600
C602        C  0.31911142  0.08379373  0.95647723     0.98100
C603        C  0.18108054  0.15975122  0.96142109     0.94500
Al604      Al  0.19948311  0.12475191  0.91118590     1.55600
O605        O  0.30140586  0.14265223  0.97608054    -0.77300
C606        C  0.25757314  0.09111050  0.87411884     0.98700
C607        C  0.17418931  0.08567594  0.95383508     0.93500
O608        O  0.19606058  0.09860466  0.97260582    -0.82600
C609        C  0.27182978  0.20625007  0.85301283    -0.06000
C610        C  0.24590211  0.18248686  0.85236377    -0.00100
C611        C  0.21999146  0.17710857  0.82757867    -0.08700
C612        C  0.22588831  0.19361620  0.80279086    -0.06000
C613        C  0.24952505  0.21838652  0.80376812    -0.00100
C614        C  0.27107444  0.22549629  0.83020895    -0.08600
C615        C  0.29089078  0.25336335  0.83693961     0.61800
H616        H  0.29055800  0.21076147  0.87232846     0.12500
H617        H  0.20970108  0.18809104  0.78278573     0.12500
C618        C  0.18391718  0.15545923  0.82778103     0.62000
F619        F  0.26917864  0.26421414  0.86107292    -0.23100
F620        F  0.28676151  0.27199842  0.81462567    -0.20500
F621        F  0.33555585  0.25037555  0.84337943    -0.20100
F622        F  0.15264610  0.16196874  0.84902479    -0.20200
F623        F  0.20069761  0.12970363  0.83307674    -0.20500
F624        F  0.16293799  0.15437069  0.80144589    -0.23200
C625        C  0.27053283  0.31495203  0.70164710    -0.06000
C626        C  0.25076664  0.28893885  0.70144390    -0.00100
C627        C  0.23313394  0.27878421  0.67482029    -0.08700
C628        C  0.23064753  0.29663794  0.65095535    -0.06000
C629        C  0.25248858  0.32186758  0.65114263    -0.00100
C630        C  0.27690638  0.32969782  0.67583086    -0.08600
C631        C  0.31614644  0.34909744  0.67355143     0.61800
H632        H  0.28465535  0.32248838  0.72158951     0.12500
H633        H  0.21457218  0.28995640  0.63119012     0.12500
C634        C  0.21997640  0.24922422  0.66910801     0.62000
F635        F  0.33210143  0.35614710  0.70055522    -0.23100
F636        F  0.30574526  0.37291955  0.65960050    -0.20500
F637        F  0.34944361  0.33619593  0.65762705    -0.20100
F638        F  0.17700157  0.24825902  0.65862063    -0.20200
F639        F  0.22238893  0.23278783  0.69332576    -0.20500
F640        F  0.24835484  0.23833865  0.64812473    -0.23200
C641        C  0.25008878  0.42055263  0.67499748    -0.06000
C642        C  0.23967435  0.43137891  0.64768785    -0.00100
C643        C  0.23194766  0.45990663  0.64541850    -0.08700
C644        C  0.23788088  0.47662202  0.67021665    -0.06000
C645        C  0.25231505  0.46590960  0.69699236    -0.00100
C646        C  0.25823515  0.43708918  0.69940623    -0.08600
C647        C  0.27338423  0.42230057  0.72660109     0.61800
H648        H  0.25038710  0.39861843  0.67769536     0.12500
H649        H  0.23159811  0.49844551  0.66881652     0.12500
C650        C  0.21539345  0.47241363  0.61750159     0.62000
F651        F  0.31545270  0.41151446  0.72158883    -0.23100
F652        F  0.21197156  0.90638357  0.73498507    -0.20500
F653        F  0.27484904  0.43890395  0.75086677    -0.20100
F654        F  0.17199203  0.46402092  0.61342763    -0.20200
F655        F  0.24168021  0.46401962  0.59419809    -0.20500
F656        F  0.21593053  0.50081734  0.61840765    -0.23200
C657        C  0.26942558  0.06465899  0.79806692    -0.06000
C658        C  0.25442648  0.03760539  0.80141324    -0.00100
C659        C  0.24335166  0.02765296  0.82973887    -0.08700
C660        C  0.24294242  0.04629941  0.85284279    -0.06000
C661        C  0.25971425  0.07271950  0.84933158    -0.00100
C662        C  0.27678115  0.08137091  0.82217897    -0.08600
C663        C  0.30592208  0.10663321  0.81912384     0.61800
H664        H  0.27830379  0.07191207  0.77654523     0.12500
H665        H  0.23206275  0.03967535  0.87428875     0.12500
C666        C  0.23547379  0.99783471  0.83790319     0.62000
F667        F  0.32300703  0.10941382  0.79122311    -0.23100
F668        F  0.34115118  0.10447459  0.83802455    -0.20500
F669        F  0.28242534  0.13006969  0.82564326    -0.20100
F670        F  0.25940882  0.48924455  0.85418255    -0.20200
F671        F  0.23869090  0.98009528  0.81453728    -0.20500
F672        F  0.19401030  0.99520734  0.85097912    -0.23200
C673        C  0.12996554  0.32742614  0.74313021    -0.06000
C674        C  0.10377988  0.32062153  0.71928728    -0.00100
C675        C  0.10887089  0.29466775  0.70607246    -0.08700
C676        C  0.14162440  0.27671987  0.71649417    -0.06000
C677        C  0.17147352  0.28482607  0.73803475    -0.00100
C678        C  0.16568921  0.31077296  0.75169427    -0.08600
C679        C  0.19687683  0.32285060  0.77412160     0.61800
H680        H  0.12404890  0.34665140  0.75425452     0.12500
H681        H  0.14581539  0.25688610  0.70655691     0.12500
C682        C  0.08096768  0.28652092  0.68039023     0.62000
F683        F  0.21496673  0.34686614  0.76324691    -0.23100
F684        F  0.23174980  0.30577735  0.78141327    -0.20500
F685        F  0.17288737  0.32890935  0.79919405    -0.20100
F686        F  0.09339666  0.30233911  0.65676587    -0.18600
F687        F  0.03625508  0.29071441  0.68685645    -0.20500
F688        F  0.08679346  0.25917625  0.67304396    -0.23200
C689        C  0.39027884  0.29507329  0.69810454    -0.06000
C690        C  0.39991860  0.31745197  0.71651614    -0.00100
C691        C  0.37937228  0.31777654  0.74468396    -0.08700
C692        C  0.34762639  0.29745449  0.75196867    -0.06000
C693        C  0.33528917  0.27661952  0.73260495    -0.00100
C694        C  0.35898857  0.27447115  0.70582031    -0.08600
C695        C  0.35257926  0.25107464  0.68466636     0.61800
H696        H  0.40681944  0.29386370  0.67705633     0.12500
H697        H  0.32934414  0.29886575  0.77233803     0.12500
C698        C  0.38767891  0.34055749  0.76642652     0.62000
F699        F  0.33593409  0.26123396  0.65895369    -0.23100
F700        F  0.32386377  0.23124264  0.69520682    -0.20500
F701        F  0.39338230  0.23866457  0.67905925    -0.20100
F702        F  0.37621989  0.36540786  0.75417249    -0.20200
F703        F  0.43208881  0.34064367  0.77419318    -0.20500
F704        F  0.36253442  0.33751723  0.79165843    -0.23200
C705        C  0.38458837  0.45605652  0.69105231    -0.06000
C706        C  0.40478297  0.44118294  0.71347090    -0.00100
C707        C  0.39601623  0.44877679  0.74260723    -0.08700
C708        C  0.36113277  0.46734552  0.74799678    -0.06000
C709        C  0.33847948  0.48093632  0.72559248    -0.00100
C710        C  0.35433683  0.47744884  0.69673441    -0.08600
C711        C  0.34292248  0.49627709  0.67173100     0.61800
H712        H  0.39254778  0.45090346  0.66877826     0.12500
H713        H  0.34975843  0.47012116  0.76995195     0.12500
C714        C  0.42195325  0.43705988  0.76792421     0.62000
F715        F  0.32621233  0.48113146  0.64892109    -0.23100
F716        F  0.38148603  0.50907083  0.66216901    -0.20500
F717        F  0.31253909  0.51645460  0.67952189    -0.20100
F718        F  0.46630182  0.44444116  0.76518698    -0.20200
F719        F  0.41873240  0.40885161  0.76844992    -0.20500
F720        F  0.40630621  0.44685381  0.79439378    -0.23200
C721        C  0.11002650  0.46337251  0.69801409    -0.06000
C722        C  0.10931122  0.43744335  0.71143726    -0.00100
C723        C  0.13952868  0.43200203  0.73412180    -0.08700
C724        C  0.17016108  0.45221507  0.74184840    -0.06000
C725        C  0.17216903  0.47782053  0.72813818    -0.00100
C726        C  0.14108084  0.48379392  0.70590671    -0.08600
C727        C  0.13917661  0.51076551  0.68960948     0.61800
H728        H  0.08653895  0.46756375  0.68083730     0.12500
H729        H  0.19458458  0.44774180  0.75827091     0.12500
C730        C  0.14260694  0.40405061  0.74834198     0.62000
F731        F  0.14128287  0.50578921  0.66003708    -0.23100
F732        F  0.17357545  0.52822597  0.69644738    -0.20500
F733        F  0.10789907  0.02448127  0.68984770    -0.20100
F734        F  0.15152305  0.38480047  0.72694203    -0.20200
F735        F  0.10321698  0.39788857  0.76274847    -0.20500
F736        F  0.17619180  0.40267002  0.76865250    -0.23200
C737        C  0.10763607  0.22157154  0.97596726    -0.06000
C738        C  0.08172750  0.21129721  0.99913715    -0.00100
C739        C  0.09335266  0.18564523  0.01199643    -0.08700
C740        C  0.12895724  0.17087870  0.00009327    -0.06000
C741        C  0.15109937  0.17965538  0.97511175    -0.00100
C742        C  0.14226673  0.20582573  0.96342581    -0.08600
C743        C  0.16963537  0.21689205  0.93820607     0.61800
H744        H  0.09901542  0.24135266  0.96686253     0.12500
H745        H  0.13847801  0.15149610  0.00980192     0.12500
C746        C  0.07065246  0.17235925  0.03811218     0.62000
F747        F  0.15899594  0.24395467  0.93220535    -0.23100
F748        F  0.16195065  0.20141162  0.91362863    -0.20500
F749        F  0.21449131  0.21558384  0.94483120    -0.20100
F750        F  0.03531000  0.18746475  0.04895915    -0.20200
F751        F  0.10136807  0.16879906  0.05999970    -0.20500
F752        F  0.05537076  0.14667145  0.03062164    -0.23200
C753        C  0.40363984  0.21868241  0.96934060    -0.06000
C754        C  0.41675138  0.21408892  0.99802704    -0.00100
C755        C  0.39240779  0.19509641  0.01541378    -0.08700
C756        C  0.35827427  0.17994579  0.00251156    -0.06000
C757        C  0.34968342  0.18158734  0.97267378    -0.00100
C758        C  0.37058351  0.20278548  0.95614391    -0.08600
C759        C  0.35834084  0.20919125  0.92496031     0.61800
H760        H  0.42168059  0.23384969  0.95671703     0.12500
H761        H  0.34019746  0.16686704  0.51230982     0.12500
C762        C  0.40296488  0.18986062  0.54323523     0.62000
F763        F  0.37703589  0.23358197  0.91542454    -0.23100
F764        F  0.31253970  0.21184008  0.92314182    -0.20500
F765        F  0.37343801  0.18857004  0.90659428    -0.20100
F766        F  0.37262678  0.20345544  0.56096354    -0.20200
F767        F  0.44560484  0.19698559  0.55095965    -0.20500
F768        F  0.39891874  0.16192769  0.54811557    -0.23200
C769        C  0.07821982  0.28872066  0.51108064    -0.06000
C770        C  0.07799149  0.26565554  0.52947332    -0.00100
C771        C  0.11328960  0.26341940  0.54995616    -0.08700
C772        C  0.14330230  0.28540558  0.55336331    -0.06000
C773        C  0.14120821  0.30917570  0.53647368    -0.00100
C774        C  0.10984097  0.31005714  0.51367705    -0.08600
C775        C  0.10907591  0.33373978  0.49266531     0.61800
H776        H  0.05253699  0.29011239  0.49479398     0.12500
H777        H  0.16911108  0.28402360  0.56961706     0.12500
C778        C  0.12340842  0.23821407  0.56752402     0.62000
F779        F  0.07428524  0.33191043  0.47326518    -0.23100
F780        F  0.14864145  0.33411995  0.47690405    -0.20500
F781        F  0.10425846  0.35780833  0.50811504    -0.20100
F782        F  0.16002622  0.22224338  0.03885578    -0.20200
F783        F  0.08805846  0.22077209  0.56852143    -0.20500
F784        F  0.13382761  0.24538327  0.59574541    -0.23200
C785        C  0.39554617  0.27818738  0.50745766    -0.06000
C786        C  0.41646325  0.26581621  0.53155070    -0.00100
C787        C  0.39823658  0.27228740  0.55969543    -0.08700
C788        C  0.36541755  0.29310193  0.56242661    -0.06000
C789        C  0.34687728  0.30641165  0.53836552    -0.00100
C790        C  0.35943087  0.29693092  0.51031395    -0.08600
C791        C  0.33464491  0.30617847  0.48351155     0.61800
H792        H  0.40867332  0.27370761  0.48600921     0.12500
H793        H  0.35381954  0.29903182  0.58396871     0.12500
C794        C  0.40676469  0.25883435  0.09017164     0.62000
F795        F  0.35236031  0.29465223  0.45837598    -0.23100
F796        F  0.33644683  0.33433271  0.48078289    -0.20500
F797        F  0.29053229  0.29817278  0.48588054    -0.20100
F798        F  0.44133367  0.23761717  0.58369223    -0.20200
F799        F  0.36790647  0.24829355  0.10212361    -0.20500
F800        F  0.42370428  0.27799286  0.10925629    -0.23200
C801        C  0.48577230  0.30566350  0.55260449    -0.06000
C802        C  0.99650091  0.27655505  0.56205453    -0.00100
C803        C  0.00855301  0.27083720  0.59128403    -0.08700
C804        C  0.01241124  0.29284671  0.61053537    -0.06000
C805        C  0.99748882  0.31902909  0.60321655    -0.00100
C806        C  0.48043561  0.32525356  0.57461578    -0.08600
C807        C  0.44287375  0.34612355  0.57188208     0.61800
H808        H  0.47087447  0.30896988  0.53159775     0.12500
H809        H  0.02308222  0.28897857  0.63245735     0.12500
C810        C  0.01317622  0.24250894  0.60461495     0.62000
F811        F  0.42408033  0.34567424  0.54459284    -0.23100
F812        F  0.45746353  0.37228601  0.57673906    -0.20500
F813        F  0.40991791  0.34015835  0.59214206    -0.20100
F814        F  0.05443358  0.23976710  0.61721722    -0.20200
F815        F  0.00747097  0.22164652  0.58485978    -0.20500
F816        F  0.98135710  0.23943070  0.62638739    -0.23200
C817        C  0.11105525  0.21410670  0.80692517    -0.06000
C818        C  0.09506605  0.19677548  0.78501160    -0.00100
C819        C  0.11031985  0.20074856  0.75612957    -0.08700
C820        C  0.14692885  0.21813386  0.75133772    -0.06000
C821        C  0.16507347  0.23435367  0.77353769    -0.00100
C822        C  0.14438008  0.23381608  0.80143611    -0.08600
C823        C  0.15622890  0.25288734  0.82612170     0.61800
H824        H  0.09775375  0.21192978  0.82870908     0.12500
H825        H  0.16311925  0.21814794  0.73025903     0.12500
C826        C  0.08876189  0.18662752  0.73049901     0.62000
F827        F  0.11849726  0.26739165  0.83461528    -0.23100
F828        F  0.18872818  0.27156610  0.81846664    -0.20500
F829        F  0.17101478  0.23771346  0.84949947    -0.20100
F830        F  0.04467596  0.19485391  0.72881350    -0.20200
F831        F  0.09048967  0.15856368  0.73375248    -0.20500
F832        F  0.10968811  0.19315009  0.70443411    -0.23200
C833        C  0.36290548  0.17875218  0.76814190    -0.06000
C834        C  0.39647080  0.18840974  0.78611248    -0.00100
C835        C  0.39775522  0.21643205  0.79388910    -0.08700
C836        C  0.36419949  0.23395595  0.78365028    -0.06000
C837        C  0.32888919  0.22390621  0.76710491    -0.00100
C838        C  0.32875181  0.19583755  0.75849576    -0.08600
C839        C  0.29394705  0.18223571  0.73959369     0.61800
H840        H  0.36234931  0.15720146  0.76245569     0.12500
H841        H  0.36379208  0.25528127  0.79010492     0.12500
C842        C  0.43293946  0.22740244  0.81402012     0.62000
F843        F  0.31478296  0.17115272  0.71526559    -0.23100
F844        F  0.26119525  0.19990706  0.73028457    -0.20500
F845        F  0.27379152  0.16116655  0.75496798    -0.20100
F846        F  0.47496961  0.21972469  0.80415972    -0.20200
F847        F  0.42535988  0.21681133  0.84146329    -0.20500
F848        F  0.43167756  0.25576825  0.81588416    -0.23200
C849        C  0.39185131  0.05044055  0.80026086    -0.06000
C850        C  0.40363198  0.07040697  0.77971952    -0.00100
C851        C  0.38453955  0.06875001  0.75175561    -0.08700
C852        C  0.35156767  0.04859160  0.74633011    -0.06000
C853        C  0.33770930  0.02924138  0.76738050    -0.00100
C854        C  0.36048194  0.02956513  0.79454642    -0.08600
C855        C  0.35057675  0.50949717  0.81711850     0.61800
H856        H  0.40731807  0.05128352  0.82143472     0.12500
H857        H  0.33413664  0.04903511  0.72598972     0.12500
C858        C  0.39721434  0.08906840  0.72817857     0.62000
F859        F  0.39000165  0.49609381  0.82345516    -0.23100
F860        F  0.31950800  0.49006563  0.81002155    -0.20500
F861        F  0.34065052  0.02221624  0.84377483    -0.20100
F862        F  0.44241666  0.08717186  0.72219269    -0.20200
F863        F  0.38717922  0.11538552  0.73732285    -0.20500
F864        F  0.37462178  0.08420006  0.70263939    -0.23200
C865        C  0.10612361  0.04948362  0.79275881    -0.06000
C866        C  0.11068527  0.07505948  0.77939137    -0.00100
C867        C  0.14439431  0.07841004  0.75783697    -0.08700
C868        C  0.17574271  0.05713193  0.75345611    -0.06000
C869        C  0.17308573  0.03189837  0.76821278    -0.00100
C870        C  0.13598751  0.02767562  0.78746988    -0.08600
C871        C  0.12425399  0.00121938  0.80268592     0.61800
H872        H  0.07862699  0.04660889  0.80801226     0.12500
H873        H  0.20341233  0.06015306  0.73845032     0.12500
C874        C  0.14742095  0.10395029  0.73931582     0.62000
F875        F  0.08774793  0.98965144  0.78935364    -0.23100
F876        F  0.11320267  0.00635209  0.83148914    -0.20500
F877        F  0.15852888  0.98277006  0.80222124    -0.20100
F878        F  0.15204484  0.12667775  0.75674139    -0.20200
F879        F  0.10910394  0.10636310  0.72313593    -0.20500
F880        F  0.18350518  0.10316714  0.72023492    -0.23200
C881        C  0.51302012  0.21776383  0.94154455    -0.06000
C882        C  0.50152391  0.20219726  0.96642414    -0.00100
C883        C  0.99099743  0.17377472  0.96188448    -0.08700
C884        C  0.99240805  0.16227240  0.93377094    -0.06000
C885        C  0.00358516  0.17733096  0.90884594    -0.00100
C886        C  0.51633422  0.20606846  0.91328516    -0.08600
C887        C  0.53196086  0.22344241  0.88798237     0.61800
H888        H  0.51990801  0.23937675  0.94455646     0.12500
H889        H  0.98685688  0.14057572  0.93159469     0.12500
C890        C  0.97848950  0.15426384  0.98598513     0.62000
F891        F  0.53634773  0.25079034  0.89560212    -0.23100
F892        F  0.50196078  0.22180930  0.86562557    -0.20500
F893        F  0.57298387  0.21392486  0.87837854    -0.20100
F894        F  0.93556361  0.14532273  0.98170572    -0.20200
F895        F  0.00683625  0.13179633  0.98534292    -0.20500
F896        F  0.98042755  0.16604456  0.01294257    -0.23200
C897        C  0.40752466  0.04054655  0.99261509    -0.06000
C898        C  0.41580519  0.01980703  0.97187462    -0.00100
C899        C  0.38793173  0.01874414  0.94707553    -0.08700
C900        C  0.35489256  0.03919839  0.94354345    -0.06000
C901        C  0.34794384  0.06011956  0.96412477    -0.00100
C902        C  0.37312037  0.06001642  0.98978131    -0.08600
C903        C  0.36505710  0.08126625  0.01342479     0.61800
H904        H  0.43101593  0.04307031  0.00991501     0.12500
H905        H  0.33517034  0.03936370  0.92394014     0.12500
C906        C  0.39646786  0.49768473  0.92463031     0.62000
F907        F  0.39321380  0.07752710  0.03671249    -0.23100
F908        F  0.32160492  0.07922279  0.02359873    -0.20500
F909        F  0.37190933  0.10733989  0.00250722    -0.20100
F910        F  0.35687187  0.48370300  0.92090141    -0.20200
F911        F  0.42895173  0.47874783  0.93113398    -0.20500
F912        F  0.40785774  0.51051342  0.89881348    -0.23200
C913        C  0.07939820  0.04468923  0.98866757    -0.06000
C914        C  0.07850739  0.02137059  0.97068584    -0.00100
C915        C  0.11169311  0.01877359  0.94837610    -0.08700
C916        C  0.14368900  0.03957969  0.94508682    -0.06000
C917        C  0.14321043  0.06326307  0.96228721    -0.00100
C918        C  0.11071048  0.06584127  0.98471136    -0.08600
C919        C  0.10230461  0.09488787  0.49697684     0.61800
H920        H  0.04921105  0.05009583  0.49978238     0.12500
H921        H  0.16881280  0.03771430  0.92799605     0.12500
C922        C  0.11587354  0.99547200  0.92690785     0.62000
F923        F  0.06435501  0.09467341  0.51440970    -0.23100
F924        F  0.09824973  0.11591897  0.47703811    -0.20500
F925        F  0.14477128  0.09535412  0.01890798    -0.20100
F926        F  0.11629977  0.00591495  0.89896199    -0.20200
F927        F  0.08164208  0.97707919  0.92915584    -0.20500
F928        F  0.15569560  0.98180310  0.93137661    -0.23200
C929        C  0.00676412  0.04123437  0.88686395    -0.06000
C930        C  0.49676002  0.06910593  0.89309617    -0.00100
C931        C  0.47657672  0.07459268  0.92024339    -0.08700
C932        C  0.48476963  0.05649732  0.94307622    -0.06000
C933        C  0.49877686  0.02952222  0.93755873    -0.00100
C934        C  0.00313107  0.02092413  0.90862414    -0.08600
C935        C  0.00316779  0.49111314  0.89844449     0.61800
H936        H  0.01504997  0.03544679  0.86468366     0.12500
H937        H  0.47528766  0.06232178  0.96494830     0.12500
C938        C  0.43548953  0.09258991  0.92256913     0.62000
F939        F  0.96697393  0.48730776  0.88058738    -0.23100
F940        F  0.51390160  0.47517628  0.92220902    -0.20500
F941        F  0.04124672  0.48536773  0.88233578    -0.20100
F942        F  0.40129073  0.07928406  0.90858813    -0.20200
F943        F  0.93590545  0.11509373  0.90697549    -0.20500
F944        F  0.42355169  0.09729777  0.95119799    -0.23200
C945        C  0.35495687  0.45321776  0.54129825    -0.06000
C946        C  0.34963678  0.42868135  0.52556584    -0.00100
C947        C  0.37493136  0.42497042  0.49955722    -0.08700
C948        C  0.40648678  0.44501553  0.49160478    -0.06000
C949        C  0.41456361  0.46834462  0.50865236    -0.00100
C950        C  0.38698341  0.47309431  0.53349677    -0.08600
C951        C  0.39103004  0.99942757  0.55475954     0.61800
H952        H  0.33447735  0.45664578  0.56056685     0.12500
H953        H  0.42716563  0.44181872  0.47250999     0.12500
C954        C  0.37123221  0.39926096  0.48114393     0.62000
F955        F  0.40150292  0.98655946  0.08250451    -0.23100
F956        F  0.35619583  0.01134776  0.05416214    -0.20500
F957        F  0.42637032  0.01623258  0.54804661    -0.20100
F958        F  0.32860487  0.39712299  0.47023774    -0.20200
F959        F  0.38093795  0.37663759  0.49801363    -0.20500
F960        F  0.40067982  0.39934122  0.45772504    -0.23200
C961        C  0.13518508  0.45209161  0.54428391    -0.06000
C962        C  0.15120754  0.43197188  0.52485638    -0.00100
C963        C  0.13823337  0.43353441  0.49549398    -0.08700
C964        C  0.10257377  0.45101095  0.48842521    -0.06000
C965        C  0.08475445  0.47044059  0.50799476    -0.00100
C966        C  0.10442704  0.47249863  0.53582616    -0.08600
C967        C  0.09513378  0.49566677  0.55708144     0.61800
H968        H  0.14709915  0.45191782  0.56628363     0.12500
H969        H  0.07746168  0.44519170  0.96928509     0.12500
C970        C  0.14065020  0.40879504  0.97220077     0.62000
F971        F  0.13428596  0.50988826  0.56161118    -0.23100
F972        F  0.08064650  0.48508281  0.58339709    -0.20500
F973        F  0.06364613  0.51406982  0.54719925    -0.20100
F974        F  0.17234527  0.38981958  0.97989391    -0.20200
F975        F  0.20521586  0.42382110  0.46972415    -0.20500
F976        F  0.10227424  0.39480199  0.96497498    -0.23200
C977        C  0.49202130  0.47229679  0.56549192    -0.06000
C978        C  0.49805524  0.45837442  0.53894856    -0.00100
C979        C  0.01304579  0.43099739  0.54074265    -0.08700
C980        C  0.01801929  0.41819510  0.56783152    -0.06000
C981        C  0.50020740  0.43002789  0.59274806    -0.00100
C982        C  0.49080133  0.45840015  0.59230568    -0.08600
C983        C  0.48065979  0.47396019  0.62003485     0.61800
H984        H  0.48839807  0.49432055  0.56513040     0.12500
H985        H  0.03168545  0.39759372  0.56841606     0.12500
C986        C  0.01850667  0.41302080  0.51406437     0.62000
F987        F  0.47730983  0.50195001  0.61538518    -0.23100
F988        F  0.51390463  0.46938743  0.64004793    -0.20500
F989        F  0.44051411  0.46496745  0.63121128    -0.20100
F990        F  0.06054056  0.40163349  0.51386902    -0.20200
F991        F  0.01262105  0.42683169  0.48825883    -0.20500
F992        F  0.98756872  0.39206670  0.51535820    -0.23200
C993        C  0.99929417  0.97602811  0.01328082     0.02100
C994        C  0.45768922  0.98393528  0.99994597     0.02100
C995        C  0.45484761  0.50347459  0.47764474     0.02100
C996        C  0.49577089  0.51102063  0.46354378     0.02100
C997        C  0.04081837  0.50294210  0.47579679     0.02100
C998        C  0.04022192  0.98463676  0.00001724     0.02100
O999        O  0.47081069  0.59662945  0.27553533    -0.82000
C1000       C  0.00193538  0.66324017  0.37917227     0.97300
O1001       O  0.46583688  0.64948719  0.37120177    -0.71100
O1002       O  0.43003845  0.66192745  0.32050670    -0.74700
Al1003     Al  0.44879726  0.62846653  0.33695725     1.49000
C1004       C  0.42761565  0.66637010  0.29363462     0.92600
O1005       O  0.03270660  0.66575760  0.27894377    -0.81000
O1006       O  0.07633818  0.60073135  0.31796051    -0.74500
Al1007     Al  0.50287325  0.63054045  0.27949377     1.90100
O1008       O  0.07979593  0.65775141  0.31401184    -0.73600
O1009       O  0.03350745  0.60481981  0.36788077    -0.73400
O1010       O  0.03643479  0.66166563  0.36340869    -0.79100
O1011       O  0.46229789  0.59474938  0.35508427    -0.77300
O1012       O  0.00146660  0.63038160  0.31911555    -1.13400
O1013       O  0.41912261  0.60658131  0.30781702    -0.72600
C1014       C  0.43293688  0.59200450  0.28674540     0.98100
C1015       C  0.06731554  0.67211159  0.29271721     0.94500
Al1016     Al  0.05229295  0.63109832  0.33884145     1.55600
O1017       O  0.44956235  0.65200997  0.27553223    -0.77300
C1018       C  0.49616955  0.58985680  0.37011975     0.98700
C1019       C  0.07920572  0.59679357  0.29093660     0.93500
O1020       O  0.05610033  0.61098469  0.27388974    -0.82600
C1021       C  0.49723745  0.71800731  0.49315284     0.02100
C1022       C  0.45667619  0.72798108  0.50594400     0.02100
C1023       C  0.45465226  0.74693569  0.02749940     0.02100
C1024       C  0.49631998  0.75608447  0.03905094     0.02100
C1025       C  0.04298679  0.74824963  0.02426089     0.02100
C1026       C  0.03950896  0.72660934  0.50608317     0.02100
O1027       O  0.03575612  0.84661933  0.22035985    -0.82000
C1028       C  0.50045116  0.91432045  0.12017555     0.97300
O1029       O  0.03409815  0.90072595  0.12753771    -0.71100
O1030       O  0.07019694  0.91319323  0.17795397    -0.74700
Al1031     Al  0.05335911  0.87962191  0.15993486     1.49000
C1032       C  0.07081567  0.91790631  0.20494500     0.92600
O1033       O  0.46255565  0.91096356  0.21916574    -0.81000
O1034       O  0.42882519  0.84675219  0.17631234    -0.74500
Al1035     Al  0.99948509  0.87839327  0.21788557     1.90100
O1036       O  0.41758710  0.90286726  0.18317164    -0.73600
O1037       O  0.47024335  0.85707484  0.12788321    -0.73400
O1038       O  0.46555865  0.91225922  0.13583665    -0.79100
O1039       O  0.04165109  0.84653203  0.13936392    -0.77300
O1040       O  0.50070283  0.87946735  0.17754250    -1.13400
O1041       O  0.08572588  0.85817031  0.18755218    -0.72600
C1042       C  0.07348581  0.84341028  0.20865310     0.98100
C1043       C  0.42780129  0.91631688  0.20532725     0.94500
Al1044     Al  0.44990661  0.87973580  0.15773446     1.55600
O1045       O  0.04883817  0.90286506  0.22221718    -0.77300
C1046       C  0.00713223  0.84243279  0.12441863     0.98700
C1047       C  0.42871796  0.84003112  0.20286170     0.93500
O1048       O  0.45029745  0.85438390  0.22063665    -0.82600
C1049       C  0.25256985  0.52047384  0.27221420     0.02100
C1050       C  0.21028069  0.51283458  0.26089880     0.02100
C1051       C  0.20903495  0.99335853  0.23786944     0.02100
C1052       C  0.24908005  0.98409432  0.22410862     0.02100
C1053       C  0.29107118  0.99395054  0.23404493     0.02100
C1054       C  0.29300626  0.51377322  0.25722361     0.02100
O1055       O  0.19372817  0.84844892  0.02428452    -0.82000
C1056       C  0.24224981  0.91370139  0.12088711     0.97300
O1057       O  0.20729036  0.90832978  0.10717163    -0.71100
O1058       O  0.16597144  0.89905316  0.05833230    -0.74700
Al1059     Al  0.19390381  0.87550428  0.08616191     1.49000
C1060       C  0.17986451  0.91146949  0.03583030     0.92600
O1061       O  0.30038695  0.89106100  0.02078253    -0.81000
O1062       O  0.32814032  0.84838867  0.06120309    -0.74500
Al1063     Al  0.24705587  0.87006137  0.02767665     1.90100
O1064       O  0.31778433  0.90566255  0.06385489    -0.73600
O1065       O  0.28394344  0.84558913  0.10989127    -0.73400
O1066       O  0.27819038  0.90128203  0.11471120    -0.79100
O1067       O  0.21250564  0.85304816  0.11785023    -0.77300
O1068       O  0.24601171  0.87356868  0.06665900    -1.13400
O1069       O  0.17167881  0.84269809  0.06922081    -0.72600
C1070       C  0.17005533  0.83609029  0.04284406     0.98100
C1071       C  0.32138494  0.90751947  0.03668189     0.94500
Al1072     Al  0.29753572  0.87521461  0.08552615     1.55600
O1073       O  0.21503073  0.90367158  0.02276269    -0.77300
C1074       C  0.24877786  0.84143037  0.12427310     0.98700
C1075       C  0.31545423  0.83122060  0.04227463     0.93500
O1076       O  0.27974877  0.83571195  0.02863483    -0.82600
C1077       C  0.25053979  0.73563903  0.27381679     0.02100
C1078       C  0.29112312  0.74183399  0.25884976     0.02100
C1079       C  0.29230703  0.76151645  0.23614729     0.02100
C1080       C  0.25115978  0.77229929  0.22600968     0.02100
C1081       C  0.21082038  0.76689743  0.24144752     0.02100
C1082       C  0.20963034  0.74668508  0.26356141     0.02100
O1083       O  0.27966310  0.58834841  0.46788235    -0.82000
C1084       C  0.24830425  0.66222077  0.37363755     0.97300
O1085       O  0.28430093  0.64996165  0.37950646    -0.71100
O1086       O  0.31850083  0.65784934  0.43070738    -0.74700
Al1087     Al  0.30260293  0.62581698  0.41032995     1.49000
C1088       C  0.31931291  0.66083040  0.45775993     0.92600
O1089       O  0.21449308  0.65484539  0.46991441    -0.81000
O1090       O  0.17888978  0.59106477  0.42444762    -0.74500
Al1091     Al  0.24704904  0.62195008  0.46696318     1.90100
O1092       O  0.16685233  0.64681690  0.43493110    -0.73600
O1093       O  0.22262164  0.60231938  0.37692036    -0.73400
O1094       O  0.21315771  0.65710506  0.38774356    -0.79100
O1095       O  0.29291333  0.59456338  0.38730260    -0.77300
O1096       O  0.24962593  0.62395572  0.42815215    -1.13400
O1097       O  0.33195256  0.60122434  0.43711007    -0.72600
C1098       C  0.31729736  0.58454573  0.45608519     0.98100
C1099       C  0.17876974  0.66024841  0.45704714     0.94500
Al1100     Al  0.19954719  0.62425399  0.40781168     1.55600
O1101       O  0.29891801  0.64389115  0.47387156    -0.77300
C1102       C  0.25926869  0.59033560  0.37197029     0.98700
C1103       C  0.17358271  0.58612611  0.45106649     0.93500
O1104       O  0.19406765  0.60002304  0.46970276    -0.82600
C1105       C  0.27182630  0.70567613  0.34985759    -0.06000
C1106       C  0.24696888  0.68149397  0.34876184    -0.00100
C1107       C  0.22213657  0.67573657  0.32353120    -0.08700
C1108       C  0.22878011  0.69212975  0.29872501    -0.06000
C1109       C  0.25118781  0.71732154  0.30015157    -0.00100
C1110       C  0.27117763  0.72487949  0.32700656    -0.08600
C1111       C  0.28895037  0.75319945  0.33418159     0.61800
H1112       H  0.28931589  0.71056798  0.36960773     0.12500
H1113       H  0.21364782  0.68634428  0.27843042     0.12500
C1114       C  0.18593140  0.65409970  0.32339334     0.62000
F1115       F  0.26449837  0.76387315  0.35727844    -0.23100
F1116       F  0.28610509  0.77153928  0.31149596    -0.20500
F1117       F  0.33300045  0.75114532  0.34248934    -0.20100
F1118       F  0.15447895  0.66066561  0.34447576    -0.20200
F1119       F  0.20246080  0.62830620  0.32888136    -0.20500
F1120       F  0.16507990  0.65304256  0.29691538    -0.23200
C1121       C  0.27244646  0.81456560  0.19926501    -0.06000
C1122       C  0.24961451  0.78951560  0.19920009    -0.00100
C1123       C  0.22691566  0.78136277  0.17352113    -0.08700
C1124       C  0.22502586  0.79977199  0.15016099    -0.06000
C1125       C  0.25052942  0.82365887  0.14986496    -0.00100
C1126       C  0.27709309  0.83028531  0.17400763    -0.08600
C1127       C  0.31258321  0.85234454  0.17255589     0.61800
H1128       H  0.28946380  0.82074322  0.21874316     0.12500
H1129       H  0.20609832  0.79445875  0.13102409     0.12500
C1130       C  0.20682438  0.75328622  0.16819513     0.62000
F1131       F  0.33262938  0.85632214  0.19905263    -0.23100
F1132       F  0.29470007  0.87696652  0.16432225    -0.20500
F1133       F  0.34496525  0.84474254  0.15246995    -0.20100
F1134       F  0.16158647  0.75598822  0.16337025    -0.20200
F1135       F  0.21312940  0.73520967  0.19071747    -0.20500
F1136       F  0.22655066  0.74189141  0.14363100    -0.23200
C1137       C  0.23501101  0.92092379  0.17415059    -0.06000
C1138       C  0.24050779  0.93259152  0.14650809    -0.00100
C1139       C  0.24601638  0.96126543  0.14441534    -0.08700
C1140       C  0.24822213  0.97704395  0.17020315    -0.06000
C1141       C  0.24675669  0.96507656  0.19807580    -0.00100
C1142       C  0.24027636  0.93617086  0.19993687    -0.08600
C1143       C  0.24000173  0.91974724  0.22789007     0.61800
H1144       H  0.22742919  0.89925143  0.17572386     0.12500
H1145       H  0.25065910  0.99909807  0.16868587     0.12500
C1146       C  0.24875387  0.97500306  0.11500506     0.62000
F1147       F  0.27419053  0.90065651  0.22671643    -0.23100
F1148       F  0.20115630  0.40651204  0.23125731    -0.20500
F1149       F  0.24568065  0.93561255  0.25234228    -0.20100
F1150       F  0.21060190  0.96937631  0.09958052    -0.20200
F1151       F  0.28536264  0.96504509  0.09982735    -0.20500
F1152       F  0.25280245  0.00321376  0.11734401    -0.23200
C1153       C  0.26801106  0.56461135  0.29560504    -0.06000
C1154       C  0.25454724  0.53727744  0.29896547    -0.00100
C1155       C  0.24779724  0.52644802  0.32750238    -0.08700
C1156       C  0.24837198  0.54472485  0.35098197    -0.06000
C1157       C  0.26238243  0.57174888  0.34726110    -0.00100
C1158       C  0.27690695  0.58097792  0.31973019    -0.08600
C1159       C  0.30643608  0.60597760  0.31636275     0.61800
H1160       H  0.27474990  0.57236415  0.27395862     0.12500
H1161       H  0.23998888  0.53752068  0.37266469     0.12500
C1162       C  0.24312539  0.49623617  0.33523867     0.62000
F1163       F  0.32232716  0.60890031  0.28817222    -0.23100
F1164       F  0.34230818  0.60312997  0.33459428    -0.20500
F1165       F  0.28410612  0.62958306  0.32370319    -0.20100
F1166       F  0.27764177  0.98921445  0.35463434    -0.20200
F1167       F  0.24394663  0.47913724  0.31127269    -0.20500
F1168       F  0.20403338  0.49213749  0.35077067    -0.23200
C1169       C  0.14240341  0.83223646  0.23451265    -0.06000
C1170       C  0.10466261  0.82284917  0.22012907    -0.00100
C1171       C  0.09874989  0.79444684  0.21581669    -0.08700
C1172       C  0.13389696  0.77659581  0.22289599    -0.06000
C1173       C  0.17213072  0.78588931  0.23728541    -0.00100
C1174       C  0.17481984  0.81412752  0.24496816    -0.08600
C1175       C  0.21007324  0.82654607  0.26443269     0.61800
H1176       H  0.14649614  0.85400435  0.23796803     0.12500
H1177       H  0.13193628  0.75555058  0.21616309     0.12500
C1178       C  0.05592333  0.78325894  0.20334978     0.62000
F1179       F  0.23272559  0.84691896  0.24953659    -0.23100
F1180       F  0.24070670  0.80774663  0.27449297    -0.20500
F1181       F  0.18911992  0.83826988  0.28837159    -0.20100
F1182       F  0.04859696  0.79469791  0.17646589    -0.18600
F1183       F  0.02052917  0.78983778  0.22164282    -0.20500
F1184       F  0.05726557  0.75499046  0.20025891    -0.23200
C1185       C  0.38526831  0.79711989  0.19218720    -0.06000
C1186       C  0.40155735  0.81567948  0.21308772    -0.00100
C1187       C  0.38986307  0.81069573  0.24274061    -0.08700
C1188       C  0.35474907  0.79237082  0.24904405    -0.06000
C1189       C  0.33584448  0.77531557  0.22789898    -0.00100
C1190       C  0.35445337  0.77616700  0.19935429    -0.08600
C1191       C  0.34272121  0.75601983  0.17564396     0.61800
H1192       H  0.39652225  0.79899559  0.16980425     0.12500
H1193       H  0.34024242  0.79228896  0.27066110     0.12500
C1194       C  0.41430987  0.82359202  0.26804397     0.62000
F1195       F  0.32360096  0.76987392  0.15272979    -0.23100
F1196       F  0.31370804  0.73593716  0.18515399    -0.20500
F1197       F  0.38133834  0.74325794  0.16577118    -0.20100
F1198       F  0.40585328  0.85130768  0.26956477    -0.20200
F1199       F  0.45969616  0.81920787  0.26476055    -0.20500
F1200       F  0.40133630  0.81222271  0.29437670    -0.23200
C1201       C  0.39103530  0.96050318  0.19618441    -0.06000
C1202       C  0.39773203  0.93832749  0.21493858    -0.00100
C1203       C  0.37144528  0.93576280  0.24029509    -0.08700
C1204       C  0.33945708  0.95587953  0.24628469    -0.06000
C1205       C  0.33122791  0.97752177  0.22703558    -0.00100
C1206       C  0.35769379  0.98020385  0.20148944    -0.08600
C1207       C  0.35233228  0.00254657  0.17891845     0.61800
H1208       H  0.41094850  0.96177959  0.17658317     0.12500
H1209       H  0.31816765  0.95370088  0.26521072     0.12500
C1210       C  0.37396490  0.91046707  0.25917274     0.62000
F1211       F  0.34441800  0.99066625  0.15215831    -0.23100
F1212       F  0.39135100  0.01752539  0.17698596    -0.20500
F1213       F  0.31779882  0.02039601  0.18520366    -0.20100
F1214       F  0.41626128  0.90791637  0.27048468    -0.20200
F1215       F  0.36438358  0.88784214  0.24231162    -0.20500
F1216       F  0.34362396  0.91126303  0.28209192    -0.23200
C1217       C  0.10993570  0.96255664  0.19769620    -0.06000
C1218       C  0.09921571  0.94053406  0.21630297    -0.00100
C1219       C  0.11869900  0.93980965  0.24425982    -0.08700
C1220       C  0.15382618  0.95784012  0.24997032    -0.06000
C1221       C  0.16624510  0.97904124  0.23107230    -0.00100
C1222       C  0.14197699  0.98245872  0.20504732    -0.08600
C1223       C  0.14808835  0.00633671  0.18435208     0.61800
H1224       H  0.09332442  0.96416597  0.17697198     0.12500
H1225       H  0.17431394  0.95392306  0.26852707     0.12500
C1226       C  0.10429967  0.91987288  0.26798273     0.62000
F1227       F  0.15788614  0.99657168  0.15676731    -0.23100
F1228       F  0.18158936  0.02396291  0.19257012    -0.20500
F1229       F  0.10932854  0.52105972  0.18074923    -0.20100
F1230       F  0.11165591  0.89319284  0.25913742    -0.20200
F1231       F  0.05949130  0.92365592  0.27436218    -0.20500
F1232       F  0.12751841  0.92384025  0.29347068    -0.23200
C1233       C  0.10405821  0.72166553  0.47243438    -0.06000
C1234       C  0.08075588  0.71192707  0.49701921    -0.00100
C1235       C  0.09335494  0.68634608  0.50954998    -0.08700
C1236       C  0.12807811  0.67151475  0.49658530    -0.06000
C1237       C  0.14790376  0.67986132  0.47059364    -0.00100
C1238       C  0.13688644  0.70551455  0.45838925    -0.08600
C1239       C  0.15983311  0.71557856  0.43091939     0.61800
H1240       H  0.09445441  0.74128820  0.46338315     0.12500
H1241       H  0.13852144  0.65230111  0.50624505     0.12500
C1242       C  0.07222216  0.67305886  0.53619303     0.62000
F1243       F  0.14524069  0.74151116  0.42314119    -0.23100
F1244       F  0.15115101  0.69784650  0.40825138    -0.20500
F1245       F  0.20538230  0.71665985  0.43516574    -0.20100
F1246       F  0.03744231  0.68809118  0.54796328    -0.20200
F1247       F  0.10427877  0.66939918  0.55722532    -0.20500
F1248       F  0.05639021  0.64744143  0.52897778    -0.23200
C1249       C  0.39962744  0.72064077  0.46822540    -0.06000
C1250       C  0.41380760  0.71536412  0.49662804    -0.00100
C1251       C  0.39003237  0.69581966  0.51372506    -0.08700
C1252       C  0.35577983  0.68081694  0.50075167    -0.06000
C1253       C  0.34671997  0.68294429  0.47101462    -0.00100
C1254       C  0.36632993  0.70486243  0.45499589    -0.08600
C1255       C  0.35244472  0.71204002  0.42432006     0.61800
H1256       H  0.41713599  0.73612486  0.45570809     0.12500
H1257       H  0.33941625  0.66248970  0.01315350     0.12500
C1258       C  0.40198819  0.68449214  0.04434977     0.62000
F1259       F  0.36819990  0.73755629  0.41592490    -0.23100
F1260       F  0.30639482  0.71286377  0.42295798    -0.20500
F1261       F  0.36917373  0.69282433  0.40486688    -0.20100
F1262       F  0.36891782  0.69429222  0.06285024    -0.20200
F1263       F  0.44267770  0.69409727  0.05331702    -0.20500
F1264       F  0.40337540  0.65614745  0.04663756    -0.23200
C1265       C  0.07347494  0.79409601  0.01325568    -0.06000
C1266       C  0.08237410  0.76792430  0.02476223    -0.00100
C1267       C  0.12427096  0.76400376  0.03884247    -0.08700
C1268       C  0.15331377  0.78650735  0.04199846    -0.06000
C1269       C  0.14100261  0.81301190  0.03389780    -0.00100
C1270       C  0.10023957  0.81692823  0.01947783    -0.08600
C1271       C  0.08297350  0.84535062  0.01346374     0.61800
H1272       H  0.04249495  0.79707085  0.00178975     0.12500
H1273       H  0.18530034  0.78372838  0.05236744     0.12500
C1274       C  0.14038628  0.73716931  0.05103157     0.62000
F1275       F  0.04152790  0.84504667  0.00052825    -0.23100
F1276       F  0.11222690  0.85874589  0.99513937    -0.20500
F1277       F  0.07927091  0.85933400  0.03955532    -0.20100
F1278       F  0.15669825  0.72191699  0.53870931    -0.20200
F1279       F  0.10521403  0.72112589  0.05902903    -0.20500
F1280       F  0.16567240  0.74131575  0.07563548    -0.23200
C1281       C  0.39177449  0.77589088  0.00764847    -0.06000
C1282       C  0.41120902  0.76352350  0.03229382    -0.00100
C1283       C  0.39146856  0.77041651  0.05988216    -0.08700
C1284       C  0.35994018  0.79206137  0.06180681    -0.06000
C1285       C  0.34334407  0.80563330  0.03730398    -0.00100
C1286       C  0.35630510  0.79529905  0.00961720    -0.08600
C1287       C  0.33272826  0.80433984  0.98230563     0.61800
H1288       H  0.40569372  0.77101156  0.98651438     0.12500
H1289       H  0.34769604  0.79838709  0.08307642     0.12500
C1290       C  0.40938861  0.75844343  0.58992706     0.62000
F1291       F  0.34953815  0.79115582  0.95782102    -0.23100
F1292       F  0.33737161  0.83223630  0.97839421    -0.20500
F1293       F  0.28787660  0.79805394  0.98474163    -0.20100
F1294       F  0.43046443  0.73463869  0.08484452    -0.20200
F1295       F  0.37179807  0.74657808  0.60219790    -0.20500
F1296       F  0.42586068  0.77754449  0.60926210    -0.23200
C1297       C  0.48017601  0.80353747  0.05441891    -0.06000
C1298       C  0.00414711  0.77921191  0.05986209    -0.00100
C1299       C  0.02549062  0.77528049  0.08701172    -0.08700
C1300       C  0.03107639  0.79788264  0.10520414    -0.06000
C1301       C  0.00709870  0.82202848  0.10087905    -0.00100
C1302       C  0.47572768  0.82389378  0.07564808    -0.08600
C1303       C  0.43861030  0.84497128  0.07219638     0.61800
H1304       H  0.46606740  0.80656567  0.03313021     0.12500
H1305       H  0.05010801  0.79542416  0.12480095     0.12500
C1306       C  0.03849569  0.74793052  0.09994788     0.62000
F1307       F  0.41959844  0.84367548  0.04499983    -0.23100
F1308       F  0.45360354  0.87121698  0.07583270    -0.20500
F1309       F  0.40576023  0.83992545  0.09283293    -0.20100
F1310       F  0.08363921  0.74772230  0.10563113    -0.20200
F1311       F  0.02806368  0.72609109  0.08243251    -0.20500
F1312       F  0.01567630  0.74444347  0.12600197    -0.23200
C1313       C  0.11282456  0.71311879  0.30526028    -0.06000
C1314       C  0.09546453  0.69585349  0.28366230    -0.00100
C1315       C  0.11023961  0.69946948  0.25464678    -0.08700
C1316       C  0.14805843  0.71581185  0.24948989    -0.06000
C1317       C  0.16621551  0.73284666  0.27101546    -0.00100
C1318       C  0.14596108  0.73284261  0.29903301    -0.08600
C1319       C  0.15820010  0.75260504  0.32302864     0.61800
H1320       H  0.10029108  0.71118910  0.32726153     0.12500
H1321       H  0.16400557  0.71524311  0.22833124     0.12500
C1322       C  0.08611161  0.68672452  0.22920605     0.62000
F1323       F  0.12018160  0.76633572  0.33237756    -0.23100
F1324       F  0.18888534  0.77201490  0.31408102    -0.20500
F1325       F  0.17543224  0.73815906  0.34618317    -0.20100
F1326       F  0.04260823  0.69627438  0.22899479    -0.20200
F1327       F  0.08579369  0.65854543  0.23143657    -0.20500
F1328       F  0.10590309  0.69354256  0.20285995    -0.23200
C1329       C  0.36520323  0.67890658  0.26257640    -0.06000
C1330       C  0.39650067  0.68725561  0.28293810    -0.00100
C1331       C  0.39669785  0.71471319  0.29275423    -0.08700
C1332       C  0.36358144  0.73267776  0.28273994    -0.06000
C1333       C  0.33031469  0.72383262  0.26373331    -0.00100
C1334       C  0.33189678  0.69659351  0.25271789    -0.08600
C1335       C  0.29940337  0.68450728  0.23112192     0.61800
H1336       H  0.36550705  0.65786360  0.25516143     0.12500
H1337       H  0.36215576  0.75328784  0.29113400     0.12500
C1338       C  0.43106205  0.72478713  0.31410307     0.62000
F1339       F  0.32289732  0.67584775  0.20669929    -0.23100
F1340       F  0.26697168  0.70265808  0.22228326    -0.20500
F1341       F  0.27842102  0.66206083  0.24350106    -0.20100
F1342       F  0.47343662  0.71755301  0.30449541    -0.20200
F1343       F  0.42280922  0.71311690  0.34098985    -0.20500
F1344       F  0.42974106  0.75304749  0.31725449    -0.23200
C1345       C  0.39351443  0.54801165  0.29549267    -0.06000
C1346       C  0.40394196  0.56918172  0.27613071    -0.00100
C1347       C  0.38329217  0.56919162  0.24864630    -0.08700
C1348       C  0.34820192  0.55043321  0.24336457    -0.06000
C1349       C  0.33601861  0.52962291  0.26325213    -0.00100
C1350       C  0.36183898  0.52755106  0.28908038    -0.08600
C1351       C  0.35952816  0.00451178  0.31135394     0.61800
H1352       H  0.41077499  0.54732944  0.31606590     0.12500
H1353       H  0.32852204  0.55289751  0.22410190     0.12500
C1354       C  0.39807820  0.58902210  0.22515037     0.62000
F1355       F  0.40081942  0.99191953  0.31330025    -0.23100
F1356       F  0.32896837  0.98481358  0.30416179    -0.20500
F1357       F  0.35015072  0.51480291  0.33798733    -0.20100
F1358       F  0.44254352  0.58435455  0.21839150    -0.20200
F1359       F  0.39296205  0.61567624  0.23472269    -0.20500
F1360       F  0.37375850  0.58589694  0.19999596    -0.23200
C1361       C  0.10773566  0.54964984  0.29513330    -0.06000
C1362       C  0.10877832  0.57437820  0.27984004    -0.00100
C1363       C  0.13851436  0.57685910  0.25580254    -0.08700
C1364       C  0.16995136  0.55576914  0.25055230    -0.06000
C1365       C  0.17102770  0.53153032  0.26712240    -0.00100
C1366       C  0.13747067  0.52798096  0.28909334    -0.08600
C1367       C  0.12915536  0.50229674  0.30652114     0.61800
H1368       H  0.08301823  0.54725410  0.31237806     0.12500
H1369       H  0.19497420  0.55831056  0.23360698     0.12500
C1370       C  0.13776869  0.60158982  0.23598242     0.62000
F1371       F  0.09002690  0.49028046  0.29736988    -0.23100
F1372       F  0.12458251  0.50881227  0.33568793    -0.20500
F1373       F  0.16284179  0.48365770  0.30370023    -0.20100
F1374       F  0.14510503  0.62502072  0.25196922    -0.20200
F1375       F  0.09679564  0.60325264  0.22262647    -0.20500
F1376       F  0.17030155  0.60011178  0.21441105    -0.23200
C1377       C  0.50992574  0.71779453  0.43916113    -0.06000
C1378       C  0.49737520  0.70278839  0.46417282    -0.00100
C1379       C  0.99032766  0.67471717  0.46095825    -0.08700
C1380       C  0.99208415  0.66315419  0.43289073    -0.06000
C1381       C  0.00258578  0.67827796  0.40788167    -0.00100
C1382       C  0.51319591  0.70564221  0.41114520    -0.08600
C1383       C  0.53297011  0.72186496  0.38619540     0.61800
H1384       H  0.51853753  0.73918839  0.44197383     0.12500
H1385       H  0.98728336  0.64138573  0.43079382     0.12500
C1386       C  0.97764869  0.65531906  0.48511973     0.62000
F1387       F  0.53991218  0.74906399  0.39356780    -0.23100
F1388       F  0.50495762  0.72117201  0.36266892    -0.20500
F1389       F  0.57362170  0.71043265  0.37849809    -0.20100
F1390       F  0.93432775  0.64703280  0.48108876    -0.20200
F1391       F  0.00512289  0.63245924  0.48424461    -0.20500
F1392       F  0.98053323  0.66698740  0.51210972    -0.23200
C1393       C  0.40800106  0.54325312  0.49248894    -0.06000
C1394       C  0.41347799  0.52075095  0.47349437    -0.00100
C1395       C  0.38236854  0.51760611  0.45063047    -0.08700
C1396       C  0.34915769  0.53794362  0.44678245    -0.06000
C1397       C  0.34570047  0.56100614  0.46503468    -0.00100
C1398       C  0.37381658  0.56286153  0.48928067    -0.08600
C1399       C  0.36819927  0.58586769  0.51130517     0.61800
H1400       H  0.43295476  0.54656497  0.50883132     0.12500
H1401       H  0.32689670  0.53644540  0.42845447     0.12500
C1402       C  0.38327076  0.99598854  0.42930849     0.62000
F1403       F  0.40032918  0.58479413  0.53261898    -0.23100
F1404       F  0.32673507  0.58376854  0.52457168    -0.20500
F1405       F  0.37120463  0.61104849  0.49778321    -0.20100
F1406       F  0.34257477  0.98280511  0.43145361    -0.20200
F1407       F  0.41625687  0.97700656  0.43441348    -0.20500
F1408       F  0.38852564  0.00590932  0.40134579    -0.23200
C1409       C  0.07922871  0.54582991  0.48691856    -0.06000
C1410       C  0.08002896  0.52145099  0.47058686    -0.00100
C1411       C  0.11417205  0.51796643  0.44905575    -0.08700
C1412       C  0.14557478  0.53900365  0.44490702    -0.06000
C1413       C  0.14297300  0.56382684  0.46014317    -0.00100
C1414       C  0.10935198  0.56734514  0.48168594    -0.08600
C1415       C  0.10613669  0.59224166  0.00045578     0.61800
H1416       H  0.05177517  0.54793485  0.00321531     0.12500
H1417       H  0.17172509  0.53643495  0.42859498     0.12500
C1418       C  0.11980192  0.49335221  0.42941593     0.62000
F1419       F  0.07024508  0.59172023  0.01967160    -0.23100
F1420       F  0.10080700  0.61439361  0.98210164    -0.20500
F1421       F  0.13973539  0.59958801  0.51457025    -0.20100
F1422       F  0.12481542  0.50194116  0.40091787    -0.20200
F1423       F  0.08400917  0.47604824  0.43064413    -0.20500
F1424       F  0.15773515  0.47907330  0.43722994    -0.23200
C1425       C  0.00862076  0.54227781  0.38790065    -0.06000
C1426       C  0.49345828  0.56875846  0.39278979    -0.00100
C1427       C  0.47538383  0.57529255  0.42024822    -0.08700
C1428       C  0.48368425  0.55738651  0.44324726    -0.06000
C1429       C  0.49536498  0.52997254  0.43803364    -0.00100
C1430       C  0.00508276  0.52201206  0.40963692    -0.08600
C1431       C  0.01265514  0.99217646  0.39833921     0.61800
H1432       H  0.01717311  0.53650712  0.36575217     0.12500
H1433       H  0.47579971  0.56389195  0.46515551     0.12500
C1434       C  0.43282207  0.59182432  0.42240908     0.62000
F1435       F  0.97900554  0.98691975  0.37884568    -0.23100
F1436       F  0.49982305  0.97355270  0.42125655    -0.20500
F1437       F  0.05290459  0.98791916  0.38409821    -0.20100
F1438       F  0.39892189  0.57545028  0.41231409    -0.20200
F1439       F  0.93582441  0.61545404  0.40731203    -0.20500
F1440       F  0.42398513  0.59952853  0.45073782    -0.23200
C1441       C  0.35915475  0.95231958  0.04141479    -0.06000
C1442       C  0.35089026  0.92919871  0.02406772    -0.00100
C1443       C  0.37264139  0.92717779  0.99655400    -0.08700
C1444       C  0.40476346  0.94702480  0.98903156    -0.06000
C1445       C  0.41604647  0.96863671  0.00774623    -0.00100
C1446       C  0.39105675  0.97215613  0.03387756    -0.08600
C1447       C  0.39515603  0.49776299  0.05695492     0.61800
H1448       H  0.34118365  0.95463583  0.06178016     0.12500
H1449       H  0.42364751  0.94477598  0.96901900     0.12500
C1450       C  0.36446645  0.90353544  0.97583580     0.62000
F1451       F  0.39143039  0.49100571  0.58128835    -0.23100
F1452       F  0.35005666  0.51359714  0.54861195    -0.20500
F1453       F  0.43083149  0.51453933  0.05099052    -0.20100
F1454       F  0.32031881  0.90353269  0.96744344    -0.20200
F1455       F  0.37469189  0.87911908  0.98946676    -0.20500
F1456       F  0.39058446  0.90526304  0.95087918    -0.23200
C1457       C  0.13498313  0.95387633  0.04478325    -0.06000
C1458       C  0.15311657  0.93492770  0.02472262    -0.00100
C1459       C  0.14092027  0.93708851  0.99526778    -0.08700
C1460       C  0.10385351  0.95350141  0.98849223    -0.06000
C1461       C  0.08365866  0.97148743  0.00866484    -0.00100
C1462       C  0.10271367  0.97350412  0.03668007    -0.08600
C1463       C  0.09152950  0.99598075  0.05838767     0.61800
H1464       H  0.14620796  0.95337419  0.06704984     0.12500
H1465       H  0.07471376  0.94345604  0.46975439     0.12500
C1466       C  0.13945752  0.90762322  0.47218171     0.62000
F1467       F  0.12955718  0.01117742  0.06339288    -0.23100
F1468       F  0.07756938  0.98450469  0.08439510    -0.20500
F1469       F  0.05887418  0.01370786  0.04876059    -0.20100
F1470       F  0.17244299  0.88944266  0.47976821    -0.20200
F1471       F  0.20967586  0.93109881  0.97025594    -0.20500
F1472       F  0.10147588  0.89289793  0.46578887    -0.23200
C1473       C  0.49788643  0.97294714  0.06516924    -0.06000
C1474       C  0.49923514  0.95832341  0.03879554    -0.00100
C1475       C  0.01223342  0.93137226  0.04152148    -0.08700
C1476       C  0.01606925  0.91852534  0.06874239    -0.06000
C1477       C  0.50099389  0.93077812  0.09300259    -0.00100
C1478       C  0.49665726  0.95960174  0.09230905    -0.08600
C1479       C  0.49238339  0.97616108  0.12000319     0.61800
H1480       H  0.49771664  0.99508317  0.06440510     0.12500
H1481       H  0.02990353  0.89797337  0.06959802     0.12500
C1482       C  0.02054825  0.91380120  0.01482409     0.62000
F1483       F  0.49213632  0.00413599  0.11470770    -0.23100
F1484       F  0.52764412  0.97028317  0.13804972    -0.20500
F1485       F  0.45290618  0.96949303  0.13383108    -0.20100
F1486       F  0.06410260  0.90487523  0.01474107    -0.20200
F1487       F  0.01313533  0.92723682  0.98897580    -0.20500
F1488       F  0.99254708  0.89132166  0.01589381    -0.23200
C1489       C  0.00038919  0.97756421  0.51284812     0.02100
C1490       C  0.45615694  0.98619894  0.50187553     0.02100
C1491       C  0.45836566  0.50465690  0.97927450     0.02100
C1492       C  0.49956220  0.51197422  0.96531097     0.02100
C1493       C  0.03868782  0.50257691  0.97555964     0.02100
C1494       C  0.04114616  0.98510248  0.49889662     0.02100
O1495       O  0.47093315  0.59807553  0.77718775    -0.82000
C1496       C  0.00424633  0.66233610  0.87814825     0.97300
O1497       O  0.47045888  0.65112015  0.87242267    -0.71100
O1498       O  0.43206828  0.66344494  0.82253687    -0.74700
Al1499     Al  0.45131429  0.62995904  0.83907954     1.49000
C1500       C  0.42854831  0.66779366  0.79572434     0.92600
O1501       O  0.03597801  0.66446170  0.77843703    -0.81000
O1502       O  0.07713927  0.59840821  0.81675728    -0.74500
Al1503     Al  0.50350996  0.63182862  0.78083763     1.90100
O1504       O  0.08222960  0.65594567  0.81394932    -0.73600
O1505       O  0.03376780  0.60220864  0.86619389    -0.73400
O1506       O  0.03964778  0.65886794  0.86363892    -0.79100
O1507       O  0.46432347  0.59662130  0.85789439    -0.77300
O1508       O  0.00325541  0.62953914  0.81826837    -1.13400
O1509       O  0.42068044  0.60760900  0.81062301    -0.72600
C1510       C  0.43372406  0.59311072  0.78921830     0.98100
C1511       C  0.07006310  0.67070774  0.79280682     0.94500
Al1512     Al  0.05395312  0.62884664  0.83813175     1.55600
O1513       O  0.45018570  0.65345007  0.77749192    -0.77300
C1514       C  0.49877891  0.59117482  0.87209924     0.98700
C1515       C  0.08018564  0.59492713  0.78972243     0.93500
O1516       O  0.05776753  0.60969951  0.77292050    -0.82600
C1517       C  0.49795837  0.71581557  0.99479302     0.02100
C1518       C  0.45635699  0.72551091  0.00632417     0.02100
C1519       C  0.45730186  0.74923750  0.52745550     0.02100
C1520       C  0.49998733  0.75835826  0.53764119     0.02100
C1521       C  0.04072559  0.74800536  0.52700323     0.02100
C1522       C  0.04167714  0.72626035  0.00411482     0.02100
O1523       O  0.03629322  0.84886198  0.71993735    -0.82000
C1524       C  0.50275169  0.91529839  0.62083437     0.97300
O1525       O  0.03762275  0.90309000  0.62715646    -0.71100
O1526       O  0.07378595  0.91454180  0.67766478    -0.74700
Al1527     Al  0.05537215  0.88133726  0.65937021     1.49000
C1528       C  0.07331315  0.91952133  0.70462661     0.92600
O1529       O  0.46790587  0.91241945  0.72025952    -0.81000
O1530       O  0.43012474  0.84828574  0.67804565    -0.74500
Al1531     Al  0.00061113  0.88083649  0.71689016     1.90100
O1532       O  0.42169051  0.90504378  0.68477228    -0.73600
O1533       O  0.47257092  0.85751976  0.62943413    -0.73400
O1534       O  0.46808524  0.91303385  0.63661050    -0.79100
O1535       O  0.04158073  0.84848680  0.63863385    -0.77300
O1536       O  0.50362463  0.88048183  0.67848214    -1.13400
O1537       O  0.08670117  0.85923019  0.68704378    -0.72600
C1538       C  0.07418614  0.84518524  0.70861476     0.98100
C1539       C  0.43330231  0.91868881  0.70663880     0.94500
Al1540     Al  0.45248698  0.88091721  0.65908428     1.55600
O1541       O  0.05018835  0.90492931  0.72169465    -0.77300
C1542       C  0.00707835  0.84532229  0.62331461     0.98700
C1543       C  0.42929613  0.84203534  0.70469632     0.93500
O1544       O  0.45236743  0.85597166  0.72207091    -0.82600
C1545       C  0.25403447  0.52072145  0.77105579     0.02100
C1546       C  0.21266062  0.51265372  0.75875631     0.02100
C1547       C  0.21151803  0.99422777  0.73910217     0.02100
C1548       C  0.25216692  0.98504845  0.72600542     0.02100
C1549       C  0.29395200  0.99436985  0.73707954     0.02100
C1550       C  0.29574722  0.51377831  0.75759216     0.02100
O1551       O  0.19519891  0.84642833  0.52827916    -0.82000
C1552       C  0.24053854  0.91521820  0.62279655     0.97300
O1553       O  0.20630177  0.91038286  0.60794615    -0.71100
O1554       O  0.16413824  0.89755215  0.55920123    -0.74700
Al1555     Al  0.19370181  0.87616266  0.58862029     1.49000
C1556       C  0.17725493  0.90897102  0.53589701     0.92600
O1557       O  0.30026690  0.89172549  0.52375713    -0.81000
O1558       O  0.32980349  0.85013258  0.56472322    -0.74500
Al1559     Al  0.24760418  0.86952924  0.53075952     1.90100
O1560       O  0.31681537  0.90723898  0.56674667    -0.73600
O1561       O  0.28406391  0.84689383  0.61289396    -0.73400
O1562       O  0.27637232  0.90234911  0.61751477    -0.79100
O1563       O  0.21312426  0.85566217  0.62156904    -0.77300
O1564       O  0.24603647  0.87415024  0.56944798    -1.13400
O1565       O  0.17309381  0.84195057  0.57338177    -0.72600
C1566       C  0.17178122  0.83424976  0.54726335     0.98100
C1567       C  0.32081188  0.90866262  0.53954167     0.94500
Al1568     Al  0.29730909  0.87658798  0.58857715     1.55600
O1569       O  0.21402142  0.90226358  0.52420680    -0.77300
C1570       C  0.24917054  0.84368130  0.62785179     0.98700
C1571       C  0.31761950  0.83242201  0.54624147     0.93500
O1572       O  0.28149291  0.83596544  0.53291668    -0.82600
C1573       C  0.25020235  0.73660685  0.77572165     0.02100
C1574       C  0.29065239  0.74271654  0.76054679     0.02100
C1575       C  0.29188346  0.76324194  0.73869426     0.02100
C1576       C  0.25082712  0.77501869  0.72969056     0.02100
C1577       C  0.21054537  0.76948667  0.74521722     0.02100
C1578       C  0.20931387  0.74838143  0.76642550     0.02100
O1579       O  0.27968857  0.58639697  0.96708720    -0.82000
C1580       C  0.24827501  0.66171822  0.87411501     0.97300
O1581       O  0.28398293  0.64906889  0.87956962    -0.71100
O1582       O  0.31859092  0.65579991  0.93038192    -0.74700
Al1583     Al  0.30194582  0.62433088  0.90974225     1.49000
C1584       C  0.31995216  0.65844437  0.95740626     0.92600
O1585       O  0.21554434  0.65317913  0.97009259    -0.81000
O1586       O  0.17741411  0.59048021  0.92440668    -0.74500
Al1587     Al  0.24735231  0.62011966  0.96670521     1.90100
O1588       O  0.16752494  0.64604270  0.93511857    -0.73600
O1589       O  0.22068192  0.60182041  0.87689972    -0.73400
O1590       O  0.21310520  0.65651958  0.88814562    -0.79100
O1591       O  0.29117898  0.59361300  0.88639270    -0.77300
O1592       O  0.24927611  0.62255011  0.92791253    -1.13400
O1593       O  0.33121959  0.59928347  0.93580026    -0.72600
C1594       C  0.31720363  0.58272520  0.95502702     0.98100
C1595       C  0.18026410  0.65927588  0.95706037     0.94500
Al1596     Al  0.19888707  0.62356138  0.90791748     1.55600
O1597       O  0.29955169  0.64153712  0.97349755    -0.77300
C1598       C  0.25703025  0.58978743  0.87143657     0.98700
C1599       C  0.17264447  0.58519647  0.95100258     0.93500
O1600       O  0.19406906  0.59855166  0.96960860    -0.82600
C1601       C  0.27105835  0.70588569  0.85131921    -0.06000
C1602       C  0.24714746  0.68136066  0.84959486    -0.00100
C1603       C  0.22314063  0.67561289  0.82408608    -0.08700
C1604       C  0.22920670  0.69260361  0.79970012    -0.06000
C1605       C  0.25098046  0.71793536  0.80167986    -0.00100
C1606       C  0.27042463  0.72534051  0.82870554    -0.08600
C1607       C  0.28786739  0.75369059  0.83613470     0.61800
H1608       H  0.28796370  0.71074788  0.87124546     0.12500
H1609       H  0.21425369  0.68709612  0.77926672     0.12500
C1610       C  0.18846532  0.65313869  0.82321019     0.62000
F1611       F  0.26315135  0.76415367  0.85921929    -0.23100
F1612       F  0.28506456  0.77217331  0.81356469    -0.20500
F1613       F  0.33188179  0.75173083  0.84451263    -0.20100
F1614       F  0.15669153  0.65802412  0.84458276    -0.20200
F1615       F  0.20693299  0.62763840  0.82745051    -0.20500
F1616       F  0.16750806  0.65264487  0.79685006    -0.23200
C1617       C  0.27213681  0.81746244  0.70311113    -0.06000
C1618       C  0.24921720  0.79241555  0.70305234    -0.00100
C1619       C  0.22692060  0.78414236  0.67729520    -0.08700
C1620       C  0.22498901  0.80251930  0.65397996    -0.06000
C1621       C  0.25068378  0.82629156  0.65363481    -0.00100
C1622       C  0.27725999  0.83296390  0.67773070    -0.08600
C1623       C  0.31423588  0.85407323  0.67578351     0.61800
H1624       H  0.28899383  0.82373634  0.72257642     0.12500
H1625       H  0.20618230  0.79715016  0.63480387     0.12500
C1626       C  0.20757530  0.75592291  0.67175691     0.62000
F1627       F  0.33343008  0.85886398  0.70242677    -0.23100
F1628       F  0.29881704  0.87872693  0.66582482    -0.20500
F1629       F  0.34665981  0.84461969  0.65665071    -0.20100
F1630       F  0.16233753  0.75821398  0.66672230    -0.20200
F1631       F  0.21413646  0.73783385  0.69421676    -0.20500
F1632       F  0.22788951  0.74481809  0.64724332    -0.23200
C1633       C  0.23831611  0.92199192  0.67639703    -0.06000
C1634       C  0.23859059  0.93396074  0.64862372    -0.00100
C1635       C  0.24085222  0.96282163  0.64659491    -0.08700
C1636       C  0.24502607  0.97847281  0.67233882    -0.06000
C1637       C  0.24976484  0.96628394  0.69989798    -0.00100
C1638       C  0.24612259  0.93728126  0.70189659    -0.08600
C1639       C  0.25063207  0.92111799  0.72988562     0.61800
H1640       H  0.23250084  0.90015342  0.67825435     0.12500
H1641       H  0.24493872  0.00059839  0.67101023     0.12500
C1642       C  0.23844725  0.97691775  0.61739084     0.62000
F1643       F  0.28576671  0.90284722  0.72695183    -0.23100
F1644       F  0.24484258  0.40082246  0.73265071    -0.20500
F1645       F  0.25867340  0.93734772  0.75384878    -0.20100
F1646       F  0.19856235  0.97044588  0.60441456    -0.20200
F1647       F  0.27338380  0.96815078  0.59980701    -0.20500
F1648       F  0.24083736  0.00519726  0.61992547    -0.23200
C1649       C  0.26993992  0.56465144  0.79514981    -0.06000
C1650       C  0.25340355  0.53785453  0.79765517    -0.00100
C1651       C  0.24019427  0.52770413  0.82551484    -0.08700
C1652       C  0.23973067  0.54593131  0.84896492    -0.06000
C1653       C  0.25918038  0.57173075  0.84645493    -0.00100
C1654       C  0.27789229  0.58047961  0.81982218    -0.08600
C1655       C  0.30980893  0.60453159  0.81806851     0.61800
H1656       H  0.28020323  0.57211983  0.77396538     0.12500
H1657       H  0.22714291  0.53926499  0.87000721     0.12500
C1658       C  0.23033805  0.49795703  0.83293819     0.62000
F1659       F  0.32771858  0.60765520  0.79043902    -0.23100
F1660       F  0.34416808  0.59999446  0.83718870    -0.20500
F1661       F  0.28909010  0.62872831  0.82542232    -0.20100
F1662       F  0.26686344  0.98982461  0.85800933    -0.20200
F1663       F  0.23517502  0.48039733  0.80955145    -0.20500
F1664       F  0.18762262  0.49589502  0.84418748    -0.23200
C1665       C  0.14203414  0.83464907  0.73638162    -0.06000
C1666       C  0.10513332  0.82495322  0.72122729    -0.00100
C1667       C  0.09938954  0.79643654  0.71778222    -0.08700
C1668       C  0.13385414  0.77874738  0.72635440    -0.06000
C1669       C  0.17151662  0.78831018  0.74106304    -0.00100
C1670       C  0.17386398  0.81673234  0.74806197    -0.08600
C1671       C  0.20825716  0.82945205  0.76794341     0.61800
H1672       H  0.14616053  0.85648049  0.73924131     0.12500
H1673       H  0.13241236  0.75768376  0.71972461     0.12500
C1674       C  0.05882433  0.78493491  0.70293844     0.62000
F1675       F  0.23187633  0.84941830  0.75307002    -0.23100
F1676       F  0.23809201  0.81066578  0.77901631    -0.20500
F1677       F  0.18633359  0.84176739  0.79118429    -0.20100
F1678       F  0.05931541  0.79350424  0.67453338    -0.18600
F1679       F  0.02023693  0.79424748  0.71650408    -0.20500
F1680       F  0.05826304  0.75651947  0.70334124    -0.23200
C1681       C  0.38719763  0.79805486  0.69549311    -0.06000
C1682       C  0.40024980  0.81847364  0.71546808    -0.00100
C1683       C  0.38272292  0.81662386  0.74441141    -0.08700
C1684       C  0.35111222  0.79611623  0.75129498    -0.06000
C1685       C  0.33536053  0.77732378  0.73074509    -0.00100
C1686       C  0.35535000  0.77755057  0.70255347    -0.08600
C1687       C  0.34375317  0.75725812  0.67892114     0.61800
H1688       H  0.40100991  0.79855881  0.67361809     0.12500
H1689       H  0.33494601  0.79623061  0.77243402     0.12500
C1690       C  0.39330605  0.83766586  0.76755751     0.62000
F1691       F  0.32622904  0.77118629  0.65549056    -0.23100
F1692       F  0.31332656  0.73782621  0.68809532    -0.20500
F1693       F  0.38212227  0.74369619  0.66991487    -0.20100
F1694       F  0.37997658  0.86315637  0.75792403    -0.20200
F1695       F  0.43849635  0.83753272  0.77320332    -0.20500
F1696       F  0.37111870  0.83261081  0.79357043    -0.23200
C1697       C  0.38726637  0.95901756  0.69425816    -0.06000
C1698       C  0.40512777  0.94208742  0.71589516    -0.00100
C1699       C  0.39279285  0.94678756  0.74516675    -0.08700
C1700       C  0.35554210  0.96350264  0.75069836    -0.06000
C1701       C  0.33592263  0.97958167  0.72894589    -0.00100
C1702       C  0.35559297  0.97945755  0.70081204    -0.08600
C1703       C  0.34727866  0.00101349  0.67780969     0.61800
H1704       H  0.39873911  0.95654615  0.67205880     0.12500
H1705       H  0.34092028  0.96354541  0.77209184     0.12500
C1706       C  0.41882079  0.93498400  0.77036581     0.62000
F1707       F  0.33471725  0.98857264  0.65218796    -0.23100
F1708       F  0.38650442  0.01515982  0.67266619    -0.20500
F1709       F  0.31504582  0.01985932  0.68598668    -0.20100
F1710       F  0.46217646  0.94457053  0.76903790    -0.20200
F1711       F  0.41945558  0.90677033  0.76922585    -0.20500
F1712       F  0.40064892  0.94267717  0.79695558    -0.23200
C1713       C  0.11190151  0.96460301  0.69858262    -0.06000
C1714       C  0.10187858  0.94184425  0.71633124    -0.00100
C1715       C  0.12200206  0.94018836  0.74399136    -0.08700
C1716       C  0.15860637  0.95708945  0.74942503    -0.06000
C1717       C  0.16941011  0.97954997  0.73180912    -0.00100
C1718       C  0.14360515  0.98445862  0.70671051    -0.08600
C1719       C  0.14754859  0.00994871  0.68804314     0.61800
H1720       H  0.09455551  0.96703806  0.67823757     0.12500
H1721       H  0.17995059  0.95227900  0.76745087     0.12500
C1722       C  0.10497684  0.92160076  0.76817803     0.62000
F1723       F  0.15501366  0.00253004  0.65938106    -0.23100
F1724       F  0.18153845  0.02710409  0.69652128    -0.20500
F1725       F  0.09919888  0.52379749  0.69607041    -0.20100
F1726       F  0.10912839  0.89441931  0.76037414    -0.20200
F1727       F  0.06060768  0.92762189  0.77399688    -0.20500
F1728       F  0.12818278  0.92535983  0.79369804    -0.23200
C1729       C  0.10511877  0.72051001  0.97018485    -0.06000
C1730       C  0.08267233  0.71144377  0.99534219    -0.00100
C1731       C  0.09582619  0.68631833  0.00876012    -0.08700
C1732       C  0.13133445  0.67176914  0.99660921    -0.06000
C1733       C  0.15042388  0.67941395  0.97020558    -0.00100
C1734       C  0.13795264  0.70416028  0.95658941    -0.08600
C1735       C  0.15864533  0.71283755  0.92783892     0.61800
H1736       H  0.09442383  0.73950906  0.96020325     0.12500
H1737       H  0.14237716  0.65296833  0.00694848     0.12500
C1738       C  0.07437639  0.67304923  0.03536132     0.62000
F1739       F  0.14447422  0.73872981  0.91961290    -0.23100
F1740       F  0.14674927  0.69451400  0.90636383    -0.20500
F1741       F  0.20461066  0.71327025  0.93005495    -0.20100
F1742       F  0.03881608  0.68779772  0.04637441    -0.20200
F1743       F  0.10575602  0.67000759  0.05694346    -0.20500
F1744       F  0.05967490  0.64712630  0.02837710    -0.23200
C1745       C  0.40147157  0.71736801  0.96784585    -0.06000
C1746       C  0.41477975  0.71221443  0.99638820    -0.00100
C1747       C  0.39106396  0.69261134  0.01336830    -0.08700
C1748       C  0.35677202  0.67784090  0.00032335    -0.06000
C1749       C  0.34794572  0.68013124  0.97058461    -0.00100
C1750       C  0.36836866  0.70170705  0.95446271    -0.08600
C1751       C  0.35545412  0.70873518  0.92357182     0.61800
H1752       H  0.41930404  0.73280622  0.95546487     0.12500
H1753       H  0.33877436  0.66533600  0.51360388     0.12500
C1754       C  0.40089029  0.68795012  0.54477804     0.62000
F1755       F  0.37282970  0.73373240  0.91478260    -0.23100
F1756       F  0.30952013  0.71056796  0.92201022    -0.20500
F1757       F  0.37134325  0.68888838  0.90453553    -0.20100
F1758       F  0.36775242  0.69788085  0.56314964    -0.20200
F1759       F  0.44147234  0.69768766  0.55369553    -0.20500
F1760       F  0.40239721  0.65962907  0.54733954    -0.23200
C1761       C  0.07871756  0.79121767  0.51349596    -0.06000
C1762       C  0.08143765  0.76654320  0.52916050    -0.00100
C1763       C  0.11821858  0.76322108  0.54836600    -0.08700
C1764       C  0.14645106  0.78587116  0.55378983    -0.06000
C1765       C  0.14201386  0.81084713  0.53906833    -0.00100
C1766       C  0.10881147  0.81302096  0.51757888    -0.08600
C1767       C  0.10494336  0.83839311  0.49913000     0.61800
H1768       H  0.05173692  0.79347503  0.49823001     0.12500
H1769       H  0.17368319  0.78390616  0.56891155     0.12500
C1770       C  0.13281558  0.73572403  0.56004526     0.62000
F1771       F  0.06671782  0.83837507  0.48254609    -0.23100
F1772       F  0.14143136  0.83954029  0.48055834    -0.20500
F1773       F  0.10390142  0.86131443  0.51678171    -0.20100
F1774       F  0.16650138  0.72378938  0.03047752    -0.20200
F1775       F  0.09690104  0.72035666  0.56831599    -0.20500
F1776       F  0.15985600  0.73851962  0.58405099    -0.23200
C1777       C  0.39450972  0.77883143  0.50969645    -0.06000
C1778       C  0.41469887  0.76595312  0.53371971    -0.00100
C1779       C  0.39670273  0.77251617  0.56189706    -0.08700
C1780       C  0.36441030  0.79368313  0.56472677    -0.06000
C1781       C  0.34662003  0.80750897  0.54071840    -0.00100
C1782       C  0.35928448  0.79818248  0.51259563    -0.08600
C1783       C  0.33556312  0.80822632  0.48568711     0.61800
H1784       H  0.40764939  0.77427929  0.48826664     0.12500
H1785       H  0.35286281  0.79959629  0.58628338     0.12500
C1786       C  0.40075793  0.75585268  0.08812419     0.62000
F1787       F  0.35430085  0.79748853  0.46046469    -0.23100
F1788       F  0.33740841  0.83643483  0.48389023    -0.20500
F1789       F  0.29140790  0.80016466  0.48706283    -0.20100
F1790       F  0.44078308  0.73821640  0.58595384    -0.20200
F1791       F  0.36129368  0.74513540  0.09902917    -0.20500
F1792       F  0.41731526  0.77428119  0.10813132    -0.23200
C1793       C  0.48393900  0.80574158  0.55423715    -0.06000
C1794       C  0.00125710  0.78016163  0.56096549    -0.00100
C1795       C  0.01976556  0.77625409  0.58896396    -0.08700
C1796       C  0.02654057  0.79925447  0.60632116    -0.06000
C1797       C  0.00539520  0.82409486  0.60055736    -0.00100
C1798       C  0.47939074  0.82568657  0.57597571    -0.08600
C1799       C  0.44232757  0.84685901  0.57306035     0.61800
H1800       H  0.46866726  0.80888898  0.53333041     0.12500
H1801       H  0.04416663  0.79680524  0.62640515     0.12500
C1802       C  0.02786125  0.74885596  0.60356076     0.62000
F1803       F  0.42304762  0.84607991  0.54593174    -0.23100
F1804       F  0.45769490  0.87298252  0.57716152    -0.20500
F1805       F  0.40960366  0.84156973  0.59370307    -0.20100
F1806       F  0.07153818  0.74730077  0.61271092    -0.20200
F1807       F  0.01861649  0.72678047  0.58595725    -0.20500
F1808       F  0.00045560  0.74698602  0.62790588    -0.23200
C1809       C  0.11389045  0.71203801  0.80693682    -0.06000
C1810       C  0.09761450  0.69502392  0.78471042    -0.00100
C1811       C  0.11199979  0.69996392  0.75581281    -0.08700
C1812       C  0.14890644  0.71717825  0.75127472    -0.06000
C1813       C  0.16610769  0.73397457  0.77331473    -0.00100
C1814       C  0.14586072  0.73268205  0.80133119    -0.08600
C1815       C  0.15687675  0.75204336  0.82592370     0.61800
H1816       H  0.10138988  0.70924184  0.82893673     0.12500
H1817       H  0.16499243  0.71739298  0.73017898     0.12500
C1818       C  0.08856816  0.68769487  0.72980762     0.62000
F1819       F  0.11819607  0.76513783  0.83514147    -0.23100
F1820       F  0.18721107  0.77196323  0.81778131    -0.20500
F1821       F  0.17393087  0.73729675  0.84892761    -0.20100
F1822       F  0.04438864  0.69598808  0.73015626    -0.20200
F1823       F  0.09047508  0.65946126  0.73056515    -0.20500
F1824       F  0.10750403  0.69628918  0.70378176    -0.23200
C1825       C  0.36514393  0.67974043  0.76500391    -0.06000
C1826       C  0.39651079  0.68844231  0.78521552    -0.00100
C1827       C  0.39605139  0.71602147  0.79484087    -0.08700
C1828       C  0.36317749  0.73389696  0.78419374    -0.06000
C1829       C  0.32999379  0.72472637  0.76534840    -0.00100
C1830       C  0.33148928  0.69720402  0.75501707    -0.08600
C1831       C  0.29849089  0.68460415  0.73407567     0.61800
H1832       H  0.36578262  0.65859034  0.75776386     0.12500
H1833       H  0.36164435  0.75478811  0.79195036     0.12500
C1834       C  0.42946528  0.72636013  0.81664403     0.62000
F1835       F  0.32144238  0.67476131  0.70994419    -0.23100
F1836       F  0.26649142  0.70276940  0.72459442    -0.20500
F1837       F  0.27709865  0.66283172  0.74748984    -0.20100
F1838       F  0.47231195  0.72029738  0.80706315    -0.20200
F1839       F  0.42154829  0.71389291  0.84316549    -0.20500
F1840       F  0.42636533  0.75448641  0.82060966    -0.23200
C1841       C  0.39086781  0.55040994  0.79933543    -0.06000
C1842       C  0.40463033  0.57003039  0.77893482    -0.00100
C1843       C  0.38750879  0.56825782  0.75040333    -0.08700
C1844       C  0.35452277  0.54829569  0.74413037    -0.06000
C1845       C  0.33828243  0.52959162  0.76514145    -0.00100
C1846       C  0.35918464  0.52990168  0.79298105    -0.08600
C1847       C  0.35409560  0.00885594  0.81859891     0.61800
H1848       H  0.40491697  0.55128526  0.82093096     0.12500
H1849       H  0.33932662  0.54810283  0.72293944     0.12500
C1850       C  0.40256215  0.58819483  0.72704039     0.62000
F1851       F  0.39431675  0.99585152  0.82372011    -0.23100
F1852       F  0.32324863  0.98916182  0.81202864    -0.20500
F1853       F  0.33609761  0.52323406  0.84182056    -0.20100
F1854       F  0.44767631  0.58472144  0.72155925    -0.20200
F1855       F  0.39473206  0.61481900  0.73615447    -0.20500
F1856       F  0.38017003  0.58421165  0.70126466    -0.23200
C1857       C  0.10597984  0.54669856  0.79043707    -0.06000
C1858       C  0.10979129  0.57283637  0.77808325    -0.00100
C1859       C  0.14222816  0.57707475  0.75596260    -0.08700
C1860       C  0.17469886  0.55668003  0.75102524    -0.06000
C1861       C  0.17270362  0.53081063  0.76446147    -0.00100
C1862       C  0.13553155  0.52512250  0.78317524    -0.08600
C1863       C  0.12250139  0.49703397  0.79428199     0.61800
H1864       H  0.07877744  0.54301538  0.80568796     0.12500
H1865       H  0.20224124  0.56071652  0.73618905     0.12500
C1866       C  0.14232143  0.60252457  0.73719510     0.62000
F1867       F  0.08786968  0.48717677  0.77772312    -0.23100
F1868       F  0.10793001  0.49868983  0.82290038    -0.20500
F1869       F  0.15697114  0.47858517  0.79301336    -0.20100
F1870       F  0.14565173  0.62548872  0.75434158    -0.20200
F1871       F  0.10314377  0.60362947  0.72170032    -0.20500
F1872       F  0.17759097  0.60272763  0.71748310    -0.23200
C1873       C  0.51186701  0.71713205  0.94111941    -0.06000
C1874       C  0.50040226  0.70115506  0.96568958    -0.00100
C1875       C  0.99560557  0.67365098  0.95970487    -0.08700
C1876       C  0.99950322  0.66198645  0.93177418    -0.06000
C1877       C  0.00484571  0.67766078  0.90645868    -0.00100
C1878       C  0.51621924  0.70571419  0.91285412    -0.08600
C1879       C  0.53246063  0.72329219  0.88787180     0.61800
H1880       H  0.51796672  0.73880532  0.94439748     0.12500
H1881       H  0.99901808  0.63992500  0.92987761     0.12500
C1882       C  0.98308601  0.65408248  0.98382071     0.62000
F1883       F  0.53632621  0.75060299  0.89576576    -0.23100
F1884       F  0.50321213  0.72165873  0.86506186    -0.20500
F1885       F  0.57393216  0.71399366  0.87880426    -0.20100
F1886       F  0.94050612  0.64457324  0.97912012    -0.20200
F1887       F  0.01204453  0.63193630  0.98371583    -0.20500
F1888       F  0.98371037  0.66607704  0.01072997    -0.23200
C1889       C  0.40442742  0.54099443  0.99441612    -0.06000
C1890       C  0.41599764  0.52075122  0.97373111    -0.00100
C1891       C  0.39006303  0.51910267  0.94808605    -0.08700
C1892       C  0.35634469  0.53888645  0.94339617    -0.06000
C1893       C  0.34632385  0.55949056  0.96380138    -0.00100
C1894       C  0.36898403  0.55961689  0.99048412    -0.08600
C1895       C  0.35726167  0.58030552  0.01407522     0.61800
H1896       H  0.42594472  0.54381858  0.01270423     0.12500
H1897       H  0.33833532  0.53869480  0.92309933     0.12500
C1898       C  0.39187593  0.99749048  0.92322496     0.62000
F1899       F  0.38283204  0.57665024  0.03861609    -0.23100
F1900       F  0.31294682  0.57733922  0.02214555    -0.20500
F1901       F  0.36412266  0.60665926  0.00393154    -0.20100
F1902       F  0.35125494  0.98451007  0.92005282    -0.20200
F1903       F  0.42350106  0.97772017  0.92882837    -0.20500
F1904       F  0.40287950  0.01040419  0.89738190    -0.23200
C1905       C  0.07802677  0.54520185  0.98708318    -0.06000
C1906       C  0.07787195  0.52108667  0.97028806    -0.00100
C1907       C  0.11152613  0.51762911  0.94846840    -0.08700
C1908       C  0.14282625  0.53865096  0.94401770    -0.06000
C1909       C  0.14168770  0.56304103  0.96005498    -0.00100
C1910       C  0.10939203  0.56621054  0.98252738    -0.08600
C1911       C  0.10302974  0.59430582  0.49760650     0.61800
H1912       H  0.05275541  0.54847199  0.50292776     0.12500
H1913       H  0.16819332  0.53622595  0.92716381     0.12500
C1914       C  0.11700223  0.49294451  0.92894232     0.62000
F1915       F  0.06576222  0.59395776  0.51565904    -0.23100
F1916       F  0.09755339  0.61513257  0.47756884    -0.20500
F1917       F  0.14440829  0.59552153  0.01652606    -0.20100
F1918       F  0.11938487  0.50143392  0.90028615    -0.20200
F1919       F  0.08255017  0.47473623  0.93164570    -0.20500
F1920       F  0.15634241  0.47961823  0.93561186    -0.23200
C1921       C  0.00710550  0.54099412  0.88679093    -0.06000
C1922       C  0.49654760  0.57020254  0.89487729    -0.00100
C1923       C  0.47511918  0.57564458  0.92164769    -0.08700
C1924       C  0.48343950  0.55801357  0.94494319    -0.06000
C1925       C  0.49952937  0.53131603  0.94006209    -0.00100
C1926       C  0.00359707  0.52075799  0.90860449    -0.08600
C1927       C  0.00158756  0.99135241  0.89829623     0.61800
H1928       H  0.01615378  0.53521023  0.86472961     0.12500
H1929       H  0.47259802  0.56382951  0.96657051     0.12500
C1930       C  0.43381795  0.59351208  0.92316221     0.62000
F1931       F  0.96452763  0.98796695  0.88111866    -0.23100
F1932       F  0.50936978  0.97328981  0.91919131    -0.20500
F1933       F  0.03883980  0.98538856  0.88141939    -0.20100
F1934       F  0.40089094  0.58039596  0.90777589    -0.20200
F1935       F  0.94109832  0.61755242  0.90883671    -0.20500
F1936       F  0.41968028  0.59747345  0.95151783    -0.23200
C1937       C  0.35623190  0.95465064  0.54278464    -0.06000
C1938       C  0.35045482  0.93032942  0.52674212    -0.00100
C1939       C  0.37534290  0.92690850  0.50053410    -0.08700
C1940       C  0.40649834  0.94716118  0.49249843    -0.06000
C1941       C  0.41504310  0.97023382  0.50984251    -0.00100
C1942       C  0.38823263  0.97455836  0.53510055    -0.08600
C1943       C  0.38871973  0.49852181  0.55239452     0.61800
H1944       H  0.33638084  0.95780030  0.56233205     0.12500
H1945       H  0.42679796  0.94418800  0.47320556     0.12500
C1946       C  0.37203351  0.90117684  0.48214407     0.62000
F1947       F  0.39950771  0.48811802  0.08503689    -0.23100
F1948       F  0.35654333  0.51331193  0.05552452    -0.20500
F1949       F  0.42451782  0.51507309  0.54605205    -0.20100
F1950       F  0.32938409  0.89866615  0.47137492    -0.20200
F1951       F  0.38237974  0.87868380  0.49903364    -0.20500
F1952       F  0.40134347  0.90145240  0.45865055    -0.23200
C1953       C  0.13906729  0.95392013  0.54048185    -0.06000
C1954       C  0.14909048  0.93093472  0.52302229    -0.00100
C1955       C  0.12868044  0.92890345  0.49541451    -0.08700
C1956       C  0.09457611  0.94755961  0.48866924    -0.06000
C1957       C  0.08315117  0.96995019  0.50646085    -0.00100
C1958       C  0.10779708  0.97409475  0.53220467    -0.08600
C1959       C  0.10314289  0.99915203  0.55154761     0.61800
H1960       H  0.15576918  0.95605505  0.56104947     0.12500
H1961       H  0.08824957  0.95045936  0.96794436     0.12500
C1962       C  0.16599898  0.92205457  0.97113833     0.62000
F1963       F  0.14340922  0.01291736  0.55179203    -0.23100
F1964       F  0.09277265  0.99108497  0.57961691    -0.20500
F1965       F  0.07074290  0.01722781  0.54234212    -0.20100
F1966       F  0.16573584  0.89413485  0.97576301    -0.20200
F1967       F  0.15348795  0.92093336  0.44720120    -0.20500
F1968       F  0.14752076  0.92687392  0.94420929    -0.23200
C1969       C  0.49521461  0.97457427  0.56680218    -0.06000
C1970       C  0.49876973  0.96052560  0.54013557    -0.00100
C1971       C  0.00728162  0.93272757  0.54135563    -0.08700
C1972       C  0.01315958  0.92018684  0.56844862    -0.06000
C1973       C  0.50272197  0.93209358  0.59383411    -0.00100
C1974       C  0.49609905  0.96077423  0.59370552    -0.08600
C1975       C  0.49294682  0.97683508  0.62182887     0.61800
H1976       H  0.49256686  0.99666393  0.56647196     0.12500
H1977       H  0.02313341  0.89884203  0.56908117     0.12500
C1978       C  0.00569563  0.91396641  0.51510401     0.62000
F1979       F  0.49281833  0.00489197  0.61707956    -0.23100
F1980       F  0.52898396  0.97057195  0.63910678    -0.20500
F1981       F  0.45406371  0.97004552  0.63634020    -0.20100
F1982       F  0.04421766  0.89857080  0.51366764    -0.20200
F1983       F  0.00116898  0.92767703  0.48913333    -0.20500
F1984       F  0.96992801  0.89635990  0.51819625    -0.23200
C1985       C  0.50015173  0.47692410  0.01437118     0.02100
C1986       C  0.95707365  0.48461871  0.00136923     0.02100
C1987       C  0.95786641  0.00481955  0.47783196     0.02100
C1988       C  0.99873116  0.01163871  0.46314075     0.02100
C1989       C  0.53773981  0.00343583  0.47507502     0.02100
C1990       C  0.54118439  0.48462206  0.00088779     0.02100
O1991       O  0.97066163  0.09663856  0.27364514    -0.82000
C1992       C  0.50217770  0.16280067  0.37720247     0.97300
O1993       O  0.96648941  0.14938971  0.36965689    -0.71100
O1994       O  0.92855266  0.16069205  0.31944137    -0.74700
Al1995     Al  0.94932027  0.12772173  0.33582447     1.49000
C1996       C  0.92574447  0.16546555  0.29267874     0.92600
O1997       O  0.53307917  0.16571125  0.27777030    -0.81000
O1998       O  0.57532092  0.09964701  0.31539282    -0.74500
Al1999     Al  0.00190763  0.13090301  0.27760269     1.90100
O2000       O  0.58007650  0.15678778  0.31268563    -0.73600
O2001       O  0.53249017  0.10315704  0.36539698    -0.73400
O2002       O  0.53735001  0.15984306  0.36233335    -0.79100
O2003       O  0.96431464  0.09442861  0.35418112    -0.77300
O2004       O  0.50099721  0.13011598  0.31727908    -1.13400
O2005       O  0.92003943  0.10494197  0.30724392    -0.72600
C2006       C  0.93357934  0.09104021  0.28552721     0.98100
C2007       C  0.56765790  0.17167430  0.29175788     0.94500
Al2008     Al  0.55197967  0.12979144  0.33695407     1.55600
O2009       O  0.94795907  0.15165208  0.27430352    -0.77300
C2010       C  0.99878835  0.08966662  0.36862001     0.98700
C2011       C  0.57840660  0.09626668  0.28830724     0.93500
O2012       O  0.55539140  0.11085371  0.27156745    -0.82600
C2013       C  0.99736486  0.21677040  0.49262803     0.02100
C2014       C  0.95604885  0.22628789  0.50467785     0.02100
C2015       C  0.95757507  0.24857858  0.02796717     0.02100
C2016       C  0.99953242  0.25794076  0.03900142     0.02100
C2017       C  0.54177788  0.24715954  0.02883448     0.02100
C2018       C  0.54137337  0.22703323  0.50293355     0.02100
O2019       O  0.53642133  0.34932344  0.22269790    -0.82000
C2020       C  0.99830085  0.41625162  0.12222811     0.97300
O2021       O  0.53551999  0.40198346  0.12882831    -0.71100
O2022       O  0.57209639  0.41388923  0.17903141    -0.74700
Al2023     Al  0.55389870  0.38053149  0.16111726     1.49000
C2024       C  0.57089919  0.41966377  0.20579410     0.92600
O2025       O  0.96469957  0.41100248  0.22140912    -0.81000
O2026       O  0.92892700  0.34723156  0.17752341    -0.74500
Al2027     Al  0.49906229  0.38040311  0.21893412     1.90100
O2028       O  0.91783078  0.40338197  0.18617199    -0.73600
O2029       O  0.96929882  0.35852195  0.12876506    -0.73400
O2030       O  0.96367754  0.41371982  0.13804482    -0.79100
O2031       O  0.54115267  0.34745686  0.14071223    -0.77300
O2032       O  0.00035276  0.38028590  0.17872689    -1.13400
O2033       O  0.58543613  0.35871279  0.18857354    -0.72600
C2034       C  0.57343277  0.34503121  0.21046504     0.98100
C2035       C  0.92945167  0.41665000  0.20824242     0.94500
Al2036     Al  0.94917204  0.38069942  0.15948517     1.55600
O2037       O  0.54716239  0.40564292  0.22303619    -0.77300
C2038       C  0.50664309  0.34358649  0.12571160     0.98700
C2039       C  0.92852773  0.34040102  0.20402489     0.93500
O2040       O  0.95001197  0.35471031  0.22188534    -0.82600
C2041       C  0.75235938  0.02064676  0.26916551     0.02100
C2042       C  0.71025026  0.01268048  0.25782335     0.02100
C2043       C  0.71058253  0.49336121  0.23984420     0.02100
C2044       C  0.75072167  0.48411599  0.22604317     0.02100
C2045       C  0.79261902  0.49373966  0.23634901     0.02100
C2046       C  0.79318157  0.01320440  0.25502854     0.02100
O2047       O  0.69486307  0.34614309  0.02812867    -0.82000
C2048       C  0.74442654  0.41423579  0.12216057     0.97300
O2049       O  0.70961004  0.40923821  0.10795188    -0.71100
O2050       O  0.66558334  0.39673493  0.05998996    -0.74700
Al2051     Al  0.69617238  0.37524078  0.08867522     1.49000
C2052       C  0.67796124  0.40843416  0.03670725     0.92600
O2053       O  0.80030670  0.39063699  0.02201245    -0.81000
O2054       O  0.83063826  0.34930725  0.06238164    -0.74500
Al2055     Al  0.74764273  0.36889119  0.02989548     1.90100
O2056       O  0.81817379  0.40619788  0.06482811    -0.73600
O2057       O  0.78720539  0.34582521  0.11143929    -0.73400
O2058       O  0.78015972  0.40140889  0.11639898    -0.79100
O2059       O  0.71654931  0.35468995  0.12098315    -0.77300
O2060       O  0.74767897  0.37329569  0.06866271    -1.13400
O2061       O  0.67517705  0.34112510  0.07363263    -0.72600
C2062       C  0.67266433  0.33368882  0.04749873     0.98100
C2063       C  0.82141796  0.40743992  0.03757812     0.94500
Al2064     Al  0.79960363  0.37562056  0.08695559     1.55600
O2065       O  0.71430872  0.40187905  0.02435782    -0.77300
C2066       C  0.75256992  0.34252001  0.12664633     0.98700
C2067       C  0.81774710  0.33165216  0.04407072     0.93500
O2068       O  0.78121931  0.33518923  0.03121007    -0.82600
C2069       C  0.74934111  0.23579010  0.27394118     0.02100
C2070       C  0.78991084  0.24170421  0.25887899     0.02100
C2071       C  0.79149458  0.26199750  0.23688541     0.02100
C2072       C  0.75058899  0.27350991  0.22748911     0.02100
C2073       C  0.71019679  0.26814473  0.24277410     0.02100
C2074       C  0.70863700  0.24754289  0.26437388     0.02100
O2075       O  0.78033531  0.08735443  0.46600517    -0.82000
C2076       C  0.74778045  0.16200242  0.37277507     0.97300
O2077       O  0.78419660  0.15051488  0.37893958    -0.71100
O2078       O  0.81855557  0.15674345  0.42949397    -0.74700
Al2079     Al  0.80276634  0.12543778  0.40845156     1.49000
C2080       C  0.81944636  0.15937174  0.45647686     0.92600
O2081       O  0.71503945  0.15375924  0.46807641    -0.81000
O2082       O  0.67914270  0.08973953  0.42292013    -0.74500
Al2083     Al  0.74737093  0.12078914  0.46519672     1.90100
O2084       O  0.66704580  0.14553373  0.43335563    -0.73600
O2085       O  0.72264059  0.10164181  0.37498956    -0.73400
O2086       O  0.71248229  0.15595714  0.38621810    -0.79100
O2087       O  0.79370495  0.09516622  0.38389166    -0.77300
O2088       O  0.74985556  0.12292086  0.42633629    -1.13400
O2089       O  0.83195300  0.10008015  0.43449829    -0.72600
C2090       C  0.81797298  0.08374307  0.45404003     0.98100
C2091       C  0.67946839  0.15930193  0.45509223     0.94500
Al2092     Al  0.69956297  0.12308583  0.40618836     1.55600
O2093       O  0.79904879  0.14238097  0.47239407    -0.77300
C2094       C  0.75995366  0.09113064  0.36859356     0.98700
C2095       C  0.67341947  0.08513330  0.44961002     0.93500
O2096       O  0.69422756  0.09902530  0.46807442    -0.82600
C2097       C  0.77037543  0.20573259  0.34960891    -0.06000
C2098       C  0.74619687  0.18135223  0.34815126    -0.00100
C2099       C  0.72183135  0.17542110  0.32280975    -0.08700
C2100       C  0.72792559  0.19210180  0.29822169    -0.06000
C2101       C  0.74991082  0.21738558  0.29999787    -0.00100
C2102       C  0.76956714  0.22499140  0.32690551    -0.08600
C2103       C  0.78688367  0.25338009  0.33423394     0.61800
H2104       H  0.78751597  0.21066707  0.36947332     0.12500
H2105       H  0.71280220  0.18644992  0.27786812     0.12500
C2106       C  0.68692555  0.15306950  0.32236567     0.62000
F2107       F  0.76191503  0.26393186  0.35715605    -0.23100
F2108       F  0.78428172  0.27171246  0.31153957    -0.20500
F2109       F  0.83079585  0.25151101  0.34285973    -0.20100
F2110       F  0.65460286  0.15891669  0.34310778    -0.20200
F2111       F  0.70525507  0.12788124  0.32827450    -0.20500
F2112       F  0.66676509  0.15132246  0.29568274    -0.23200
C2113       C  0.77138030  0.31630381  0.20216404    -0.06000
C2114       C  0.74950235  0.29095904  0.20112728    -0.00100
C2115       C  0.72962078  0.28229155  0.17467726    -0.08700
C2116       C  0.72949388  0.30047507  0.15121345    -0.06000
C2117       C  0.75393067  0.32471261  0.15196743    -0.00100
C2118       C  0.77772959  0.33196680  0.17704450    -0.08600
C2119       C  0.81214369  0.35461757  0.17661119     0.61800
H2120       H  0.78655960  0.32261751  0.22228354     0.12500
H2121       H  0.71262412  0.29485866  0.13134970     0.12500
C2122       C  0.71095516  0.25395317  0.16868579     0.62000
F2123       F  0.83133097  0.35826713  0.20344911    -0.23100
F2124       F  0.79325339  0.37906287  0.16869563    -0.20500
F2125       F  0.84528630  0.34801571  0.15668795    -0.20100
F2126       F  0.66665431  0.25618071  0.16110646    -0.20200
F2127       F  0.71418735  0.23631468  0.19184798    -0.20500
F2128       F  0.73419950  0.24232976  0.14557483    -0.23200
C2129       C  0.73272749  0.42195550  0.17518029    -0.06000
C2130       C  0.74286937  0.43318081  0.14781544    -0.00100
C2131       C  0.75513758  0.46107994  0.14626557    -0.08700
C2132       C  0.75590348  0.47690121  0.17208218    -0.06000
C2133       C  0.74883069  0.46526543  0.19979882    -0.00100
C2134       C  0.73864301  0.43675177  0.20125206    -0.08600
C2135       C  0.73634026  0.42016485  0.22910130     0.61800
H2136       H  0.72237016  0.40068442  0.17636642     0.12500
H2137       H  0.76214226  0.49864586  0.17068768     0.12500
C2138       C  0.76832031  0.47370959  0.11744805     0.62000
F2139       F  0.76945318  0.40034320  0.22830435    -0.23100
F2140       F  0.70204256  0.90525088  0.23017269    -0.20500
F2141       F  0.74222784  0.43572370  0.25376801    -0.20100
F2142       F  0.73463689  0.47001270  0.09757006    -0.20200
F2143       F  0.80675593  0.46101136  0.10734334    -0.20500
F2144       F  0.77651093  0.50155861  0.11986410    -0.23200
C2145       C  0.76597881  0.06551840  0.29135194    -0.06000
C2146       C  0.75389321  0.03807721  0.29542863    -0.00100
C2147       C  0.74728712  0.02781278  0.32412629    -0.08700
C2148       C  0.74969649  0.04620361  0.34733874    -0.06000
C2149       C  0.76302855  0.07328738  0.34320833    -0.00100
C2150       C  0.77391963  0.08286536  0.31486263    -0.08600
C2151       C  0.79558166  0.11019448  0.30772913     0.61800
H2152       H  0.77189603  0.07301109  0.26945846     0.12500
H2153       H  0.74223710  0.03910461  0.36921361     0.12500
C2154       C  0.73943915  0.99803898  0.33235712     0.62000
F2155       F  0.83412842  0.10557604  0.29188153    -0.23100
F2156       F  0.80692460  0.12491517  0.33200627    -0.20500
F2157       F  0.76766869  0.12581964  0.29072416    -0.20100
F2158       F  0.78696243  0.48728614  0.35581589    -0.20200
F2159       F  0.74062761  0.98041646  0.30884727    -0.20500
F2160       F  0.69876726  0.99582588  0.34659317    -0.23200
C2161       C  0.63834774  0.33258991  0.23959565    -0.06000
C2162       C  0.60360854  0.32392346  0.22181732    -0.00100
C2163       C  0.60098333  0.29601374  0.21361729    -0.08700
C2164       C  0.63576116  0.27827202  0.22145527    -0.06000
C2165       C  0.67148702  0.28699628  0.23854245    -0.00100
C2166       C  0.67182916  0.31453507  0.24884274    -0.08600
C2167       C  0.70615821  0.32635876  0.26941425     0.61800
H2168       H  0.63994173  0.35391953  0.24595254     0.12500
H2169       H  0.63538404  0.25762494  0.21310411     0.12500
C2170       C  0.56327240  0.28373119  0.19622746     0.62000
F2171       F  0.72650618  0.34879495  0.25657515    -0.23100
F2172       F  0.73897432  0.30797349  0.27715726    -0.20500
F2173       F  0.68464552  0.33497319  0.29459656    -0.20100
F2174       F  0.58043652  0.27305759  0.17062195    -0.18600
F2175       F  0.53005264  0.30231580  0.18953132    -0.20500
F2176       F  0.54408538  0.26262814  0.21204244    -0.23200
C2177       C  0.88429999  0.29783621  0.19297842    -0.06000
C2178       C  0.90111548  0.31603663  0.21404582    -0.00100
C2179       C  0.88993880  0.31056325  0.24368489    -0.08700
C2180       C  0.85460239  0.29235820  0.24994089    -0.06000
C2181       C  0.83518700  0.27568196  0.22866543    -0.00100
C2182       C  0.85348496  0.27684655  0.20004121    -0.08600
C2183       C  0.84185347  0.25679551  0.17622575     0.61800
H2184       H  0.89527543  0.29995271  0.17056375     0.12500
H2185       H  0.84053895  0.29197758  0.27167217     0.12500
C2186       C  0.91563661  0.32246921  0.26898135     0.62000
F2187       F  0.82352809  0.27077427  0.15312152    -0.23100
F2188       F  0.81230902  0.23691278  0.18549287    -0.20500
F2189       F  0.88042523  0.24377094  0.16669162    -0.20100
F2190       F  0.90818768  0.35023902  0.27149989    -0.20200
F2191       F  0.96075376  0.31760118  0.26484663    -0.20500
F2192       F  0.90319178  0.31049995  0.29512263    -0.23200
C2193       C  0.89609282  0.46206145  0.20091895    -0.06000
C2194       C  0.90049803  0.43885210  0.21853254    -0.00100
C2195       C  0.87304050  0.43565223  0.24326106    -0.08700
C2196       C  0.83944070  0.45492532  0.24832390    -0.06000
C2197       C  0.83275606  0.47724960  0.22971650    -0.00100
C2198       C  0.86229132  0.48153571  0.20591492    -0.08600
C2199       C  0.85986102  0.50543580  0.18498100     0.61800
H2200       H  0.91846520  0.46445133  0.18254335     0.12500
H2201       H  0.81630420  0.45182442  0.26617485     0.12500
C2202       C  0.87665304  0.41080275  0.26269951     0.62000
F2203       F  0.85674869  0.49556184  0.15689785    -0.23100
F2204       F  0.89836226  0.52082658  0.18709938    -0.20500
F2205       F  0.82386865  0.52243677  0.19019643    -0.20100
F2206       F  0.91963836  0.40840995  0.27297595    -0.20200
F2207       F  0.86591347  0.38784967  0.24673049    -0.20500
F2208       F  0.84791166  0.41230224  0.28644153    -0.23200
C2209       C  0.61269330  0.46338915  0.19795960    -0.06000
C2210       C  0.59933693  0.44230276  0.21709299    -0.00100
C2211       C  0.61653810  0.44229143  0.24570125    -0.08700
C2212       C  0.65218826  0.45977446  0.25181055    -0.06000
C2213       C  0.66745506  0.47981495  0.23238376    -0.00100
C2214       C  0.64523170  0.48289785  0.20556590    -0.08600
C2215       C  0.65397138  0.50613386  0.18441642     0.61800
H2216       H  0.59791665  0.46451699  0.17663962     0.12500
H2217       H  0.67114820  0.45597217  0.27101259     0.12500
C2218       C  0.59939898  0.42347383  0.26969384     0.62000
F2219       F  0.66461641  0.49553482  0.15730505    -0.23100
F2220       F  0.68810194  0.52317112  0.19296185    -0.20500
F2221       F  0.60975361  0.02175772  0.18067922    -0.20100
F2222       F  0.60624483  0.39637124  0.26214448    -0.20200
F2223       F  0.55436834  0.42823585  0.27441339    -0.20500
F2224       F  0.62075041  0.42799362  0.29577130    -0.23200
C2225       C  0.60481850  0.22103417  0.46874419    -0.06000
C2226       C  0.58223305  0.21202572  0.49390754    -0.00100
C2227       C  0.59490708  0.18667957  0.50701168    -0.08700
C2228       C  0.63002562  0.17185973  0.49462174    -0.06000
C2229       C  0.64918706  0.17942908  0.46819387    -0.00100
C2230       C  0.63735145  0.20449417  0.45494798    -0.08600
C2231       C  0.65869786  0.21341792  0.42649367     0.61800
H2232       H  0.59458453  0.24022503  0.45896972     0.12500
H2233       H  0.64084506  0.15298910  0.50489127     0.12500
C2234       C  0.57302622  0.17332436  0.53338520     0.62000
F2235       F  0.64452018  0.23931657  0.41828566    -0.23100
F2236       F  0.64759381  0.19517520  0.40475808    -0.20500
F2237       F  0.70457427  0.21398536  0.42925684    -0.20100
F2238       F  0.53792321  0.18833019  0.54468764    -0.20200
F2239       F  0.60433684  0.16951014  0.55486534    -0.20500
F2240       F  0.55744565  0.14773592  0.52591512    -0.23200
C2241       C  0.89935462  0.21898318  0.46714532    -0.06000
C2242       C  0.91432616  0.21301009  0.49515518    -0.00100
C2243       C  0.89224686  0.19248326  0.51185346    -0.08700
C2244       C  0.85754507  0.17791456  0.49913453    -0.06000
C2245       C  0.84712411  0.18106096  0.46976263    -0.00100
C2246       C  0.86602953  0.20333063  0.45394492    -0.08600
C2247       C  0.85158110  0.21088908  0.42347805     0.61800
H2248       H  0.91621573  0.23490987  0.45488753     0.12500
H2249       H  0.84159646  0.16368229  0.01565148     0.12500
C2250       C  0.90431007  0.18688726  0.04618303     0.62000
F2251       F  0.86684491  0.23660264  0.41538875    -0.23100
F2252       F  0.80550677  0.21147094  0.42239944    -0.20500
F2253       F  0.86834568  0.19204440  0.40362508    -0.20100
F2254       F  0.87197241  0.19759124  0.06465867    -0.20200
F2255       F  0.94544772  0.19635365  0.05439579    -0.20500
F2256       F  0.90507067  0.15863001  0.04946266    -0.23200
C2257       C  0.57694374  0.29142567  0.01642614    -0.06000
C2258       C  0.58189890  0.26614013  0.03070764    -0.00100
C2259       C  0.62055330  0.26241403  0.04820335    -0.08700
C2260       C  0.64955726  0.28484773  0.05269419    -0.06000
C2261       C  0.64261031  0.31044472  0.03970304    -0.00100
C2262       C  0.60635421  0.31349437  0.02060740    -0.08600
C2263       C  0.59895817  0.33983697  0.00427159     0.61800
H2264       H  0.54855039  0.29400184  0.00233490     0.12500
H2265       H  0.67866360  0.28238566  0.06619397     0.12500
C2266       C  0.63527283  0.23499656  0.05993698     0.62000
F2267       F  0.55721542  0.34087747  0.99175661    -0.23100
F2268       F  0.63086061  0.34149008  0.98247520    -0.20500
F2269       F  0.60257561  0.36199090  0.02285641    -0.20100
F2270       F  0.66193266  0.22362029  0.53162497    -0.20200
F2271       F  0.59937467  0.21908900  0.06701259    -0.20500
F2272       F  0.66036351  0.23805149  0.08479655    -0.23200
C2273       C  0.89494452  0.27765237  0.00866771    -0.06000
C2274       C  0.91447082  0.26511716  0.03317339    -0.00100
C2275       C  0.89528246  0.27183203  0.06095918    -0.08700
C2276       C  0.86320239  0.29305538  0.06313566    -0.06000
C2277       C  0.84625284  0.30661100  0.03879368    -0.00100
C2278       C  0.85956185  0.29701194  0.01091590    -0.08600
C2279       C  0.83654676  0.30692574  0.98369944     0.61800
H2280       H  0.90876137  0.27291543  0.98745699     0.12500
H2281       H  0.85102621  0.29919921  0.08448592     0.12500
C2282       C  0.89570228  0.25401890  0.58532893     0.62000
F2283       F  0.85504363  0.29537775  0.95880377    -0.23100
F2284       F  0.83969502  0.33506254  0.98136749    -0.20500
F2285       F  0.79201584  0.29965334  0.98502302    -0.20100
F2286       F  0.93656894  0.23701235  0.08589087    -0.20200
F2287       F  0.85446666  0.24359776  0.59333095    -0.20500
F2288       F  0.91073059  0.27061784  0.60751590    -0.23200
C2289       C  0.98322320  0.30553946  0.05434245    -0.06000
C2290       C  0.50239151  0.27874060  0.06324876    -0.00100
C2291       C  0.52122626  0.27474694  0.09119530    -0.08700
C2292       C  0.52687852  0.29759806  0.10907098    -0.06000
C2293       C  0.50559974  0.32237540  0.10309154    -0.00100
C2294       C  0.97775508  0.32582244  0.07562750    -0.08600
C2295       C  0.94119531  0.34706960  0.07170630     0.61800
H2296       H  0.96938513  0.30846708  0.03295951     0.12500
H2297       H  0.54334994  0.29514000  0.12966479     0.12500
C2298       C  0.53131278  0.24726589  0.10504045     0.62000
F2299       F  0.92262209  0.34553665  0.04444859    -0.23100
F2300       F  0.95690263  0.37319893  0.07518231    -0.20500
F2301       F  0.90790931  0.34248169  0.09215550    -0.20100
F2302       F  0.57569360  0.24618338  0.11271195    -0.20200
F2303       F  0.52157146  0.22534410  0.08735344    -0.20500
F2304       F  0.50574993  0.24461993  0.13012992    -0.23200
C2305       C  0.61254164  0.21265544  0.30543104    -0.06000
C2306       C  0.59560107  0.19570155  0.28337961    -0.00100
C2307       C  0.60981939  0.20029076  0.25437388    -0.08700
C2308       C  0.64682705  0.21734813  0.24947714    -0.06000
C2309       C  0.66504401  0.23375958  0.27146989    -0.00100
C2310       C  0.64501856  0.23290178  0.29955001    -0.08600
C2311       C  0.65660232  0.25246920  0.32384353     0.61800
H2312       H  0.60014991  0.21013721  0.32749587     0.12500
H2313       H  0.66263090  0.21738587  0.22828935     0.12500
C2314       C  0.58630175  0.18757580  0.22865216     0.62000
F2315       F  0.61816658  0.26570908  0.33327094    -0.23100
F2316       F  0.68679526  0.27228062  0.31520363    -0.20500
F2317       F  0.67410115  0.23793125  0.34684032    -0.20100
F2318       F  0.54237070  0.19633594  0.22856389    -0.20200
F2319       F  0.58737260  0.15936630  0.23033139    -0.20500
F2320       F  0.60576314  0.19519095  0.20244683    -0.23200
C2321       C  0.86372536  0.17850683  0.26143802    -0.06000
C2322       C  0.89440343  0.18639929  0.28241391    -0.00100
C2323       C  0.89412395  0.21358750  0.29306140    -0.08700
C2324       C  0.86150720  0.23180736  0.28300903    -0.06000
C2325       C  0.82876143  0.22341470  0.26348109    -0.00100
C2326       C  0.83041473  0.19636853  0.25188708    -0.08600
C2327       C  0.79810111  0.18470303  0.22993681     0.61800
H2328       H  0.86446829  0.15766652  0.25332284     0.12500
H2329       H  0.85992746  0.25227178  0.29177996     0.12500
C2330       C  0.92744038  0.22313774  0.31533151     0.62000
F2331       F  0.82160333  0.17711974  0.20512115    -0.23100
F2332       F  0.76510135  0.20282122  0.22200221    -0.20500
F2333       F  0.77778527  0.16164217  0.24145742    -0.20100
F2334       F  0.97025326  0.21645841  0.30613940    -0.20200
F2335       F  0.91828177  0.21054263  0.34162771    -0.20500
F2336       F  0.92553965  0.25126651  0.31954518    -0.23200
C2337       C  0.89341477  0.04710682  0.29409810    -0.06000
C2338       C  0.90488620  0.06804771  0.27464149    -0.00100
C2339       C  0.88456477  0.06810226  0.24699701    -0.08700
C2340       C  0.84946920  0.04937470  0.24143598    -0.06000
C2341       C  0.83628346  0.02887831  0.26141838    -0.00100
C2342       C  0.86118189  0.02694957  0.28764428    -0.08600
C2343       C  0.86635000  0.50138513  0.31053085     0.61800
H2344       H  0.91000881  0.04649672  0.31490651     0.12500
H2345       H  0.83054245  0.05159006  0.22180777     0.12500
C2346       C  0.89930767  0.08817988  0.22369803     0.62000
F2347       F  0.90730457  0.48831870  0.30832060    -0.23100
F2348       F  0.83392686  0.48257515  0.30432922    -0.20500
F2349       F  0.84598298  0.01554863  0.33655717    -0.20100
F2350       F  0.94353810  0.08326484  0.21647442    -0.20200
F2351       F  0.89488232  0.11475046  0.23373661    -0.20500
F2352       F  0.87440183  0.08565365  0.19871203    -0.23200
C2353       C  0.60646112  0.04889654  0.29144901    -0.06000
C2354       C  0.60809284  0.07398588  0.27684634    -0.00100
C2355       C  0.63832201  0.07681725  0.25310339    -0.08700
C2356       C  0.66994793  0.05581343  0.24778616    -0.06000
C2357       C  0.67050299  0.03120164  0.26376519    -0.00100
C2358       C  0.63604162  0.02718459  0.28508999    -0.08600
C2359       C  0.62518538  0.00046389  0.30008086     0.61800
H2360       H  0.58094063  0.04617145  0.30811585     0.12500
H2361       H  0.69543900  0.05867349  0.23119678     0.12500
C2362       C  0.63782760  0.10177526  0.23361257     0.62000
F2363       F  0.58968936  0.98831628  0.28618716    -0.23100
F2364       F  0.61315726  0.00502553  0.32883734    -0.20500
F2365       F  0.66034711  0.98274443  0.29991152    -0.20100
F2366       F  0.64568308  0.12495670  0.24988037    -0.20200
F2367       F  0.59678231  0.10386483  0.22041029    -0.20500
F2368       F  0.67015005  0.10032231  0.21190125    -0.23200
C2369       C  0.00957184  0.21722884  0.43841798    -0.06000
C2370       C  0.99888649  0.20168851  0.46342973    -0.00100
C2371       C  0.49353119  0.17450012  0.45878202    -0.08700
C2372       C  0.49716508  0.16272898  0.43088081    -0.06000
C2373       C  0.50288204  0.17825541  0.40549126    -0.00100
C2374       C  0.01253116  0.20546214  0.41015387    -0.08600
C2375       C  0.02945437  0.22254785  0.38500523     0.61800
H2376       H  0.01643529  0.23884956  0.44134446     0.12500
H2377       H  0.49616233  0.14068380  0.42908553     0.12500
C2378       C  0.47973410  0.15516265  0.48283966     0.62000
F2379       F  0.03746687  0.24945244  0.39305609    -0.23100
F2380       F  0.99860655  0.22268025  0.36307087    -0.20500
F2381       F  0.06899671  0.21141826  0.37474690    -0.20100
F2382       F  0.43674476  0.14648412  0.47787106    -0.20200
F2383       F  0.50752304  0.13244280  0.48286343    -0.20500
F2384       F  0.48061560  0.16710878  0.50978442    -0.23200
C2385       C  0.90766894  0.04316522  0.49247425    -0.06000
C2386       C  0.91604440  0.02146681  0.47285707    -0.00100
C2387       C  0.88721317  0.01854831  0.44873167    -0.08700
C2388       C  0.85354435  0.03840962  0.44427606    -0.06000
C2389       C  0.84708908  0.06066651  0.46324032    -0.00100
C2390       C  0.87278429  0.06221002  0.48867379    -0.08600
C2391       C  0.86448922  0.08459092  0.51107523     0.61800
H2392       H  0.93108401  0.04652012  0.50970782     0.12500
H2393       H  0.83307737  0.03710887  0.42505529     0.12500
C2394       C  0.88111111  0.49226289  0.43522794     0.62000
F2395       F  0.89291551  0.08232670  0.53443637    -0.23100
F2396       F  0.82115131  0.08279308  0.52151232    -0.20500
F2397       F  0.87070342  0.11005655  0.49860449    -0.20100
F2398       F  0.84313772  0.47770302  0.44269285    -0.20200
F2399       F  0.91736453  0.47515181  0.43813052    -0.20500
F2400       F  0.87855232  0.49992046  0.40637062    -0.23200
C2401       C  0.57773328  0.04605847  0.48597952    -0.06000
C2402       C  0.57731591  0.02171444  0.46956330    -0.00100
C2403       C  0.61135770  0.01775397  0.44805350    -0.08700
C2404       C  0.64305493  0.03854847  0.44343520    -0.06000
C2405       C  0.64203666  0.06322235  0.45897041    -0.00100
C2406       C  0.60948913  0.06684110  0.48125789    -0.08600
C2407       C  0.60301065  0.09210141  0.00001368     0.61800
H2408       H  0.54904665  0.04761194  0.00112715     0.12500
H2409       H  0.66864144  0.03571873  0.42679465     0.12500
C2410       C  0.61682019  0.99280376  0.42892234     0.62000
F2411       F  0.56596680  0.09134219  0.01826331    -0.23100
F2412       F  0.59804348  0.11385815  0.98109266    -0.20500
F2413       F  0.64453753  0.09684280  0.51461795    -0.20100
F2414       F  0.62003768  0.00093691  0.40017563    -0.20200
F2415       F  0.58193800  0.97493119  0.43152865    -0.20500
F2416       F  0.65570014  0.97922153  0.43614455    -0.23200
C2417       C  0.50684847  0.04183264  0.38671924    -0.06000
C2418       C  0.99674577  0.06876319  0.39163624    -0.00100
C2419       C  0.97672688  0.07498290  0.41868000    -0.08700
C2420       C  0.98494408  0.05747034  0.44202425    -0.06000
C2421       C  0.99844541  0.03029340  0.43732537    -0.00100
C2422       C  0.50316231  0.02172788  0.40863597    -0.08600
C2423       C  0.50613120  0.49190284  0.39860291     0.61800
H2424       H  0.51628667  0.03593001  0.36475798     0.12500
H2425       H  0.97557396  0.06391791  0.46372638     0.12500
C2426       C  0.93405992  0.09154729  0.42021652     0.62000
F2427       F  0.47147489  0.48724389  0.37969457    -0.23100
F2428       F  0.00102772  0.47377854  0.42176840    -0.20500
F2429       F  0.54570759  0.48723685  0.38367103    -0.20100
F2430       F  0.90082451  0.07589812  0.40807554    -0.20200
F2431       F  0.43917579  0.11810659  0.40766031    -0.20500
F2432       F  0.92279660  0.09799814  0.44856812    -0.23200
C2433       C  0.85328422  0.45414917  0.03874864    -0.06000
C2434       C  0.85093262  0.42873598  0.02446855    -0.00100
C2435       C  0.87956511  0.42379297  0.00029363    -0.08700
C2436       C  0.91095072  0.44395518  0.99253379    -0.06000
C2437       C  0.91635858  0.46818152  0.00867950    -0.00100
C2438       C  0.88612367  0.47372216  0.03196494    -0.08600
C2439       C  0.88324980  0.99973924  0.04872468     0.61800
H2440       H  0.83005864  0.45835134  0.05636595     0.12500
H2441       H  0.93333998  0.44029231  0.97435903     0.12500
C2442       C  0.87918923  0.39686529  0.98377321     0.62000
F2443       F  0.90107153  0.99019736  0.58382025    -0.23100
F2444       F  0.85505683  0.01396946  0.55497542    -0.20500
F2445       F  0.91988393  0.01615773  0.04459531    -0.20100
F2446       F  0.83867658  0.39366445  0.97018603    -0.20200
F2447       F  0.88597817  0.37550723  0.00289131    -0.20500
F2448       F  0.91248018  0.39555782  0.96267500    -0.23200
C2449       C  0.63953930  0.45324812  0.04206119    -0.06000
C2450       C  0.64913833  0.43027727  0.02443850    -0.00100
C2451       C  0.62757423  0.42797855  0.99726539    -0.08700
C2452       C  0.59313801  0.44647846  0.99098708    -0.06000
C2453       C  0.58270687  0.46913755  0.00857520    -0.00100
C2454       C  0.60787608  0.47333351  0.03410939    -0.08600
C2455       C  0.60325521  0.49828705  0.05360224     0.61800
H2456       H  0.65698672  0.45550646  0.06242460     0.12500
H2457       H  0.57568203  0.44372858  0.46866642     0.12500
C2458       C  0.64274806  0.40956975  0.47054452     0.62000
F2459       F  0.64340714  0.51216788  0.05375039    -0.23100
F2460       F  0.59322754  0.49003937  0.08166969    -0.20500
F2461       F  0.57062660  0.51632110  0.04464032    -0.20100
F2462       F  0.67540998  0.39120832  0.47818766    -0.20200
F2463       F  0.65184753  0.42008346  0.94894515    -0.20500
F2464       F  0.60546469  0.39486827  0.46259748    -0.23200
C2465       C  0.99153435  0.47455210  0.06684812    -0.06000
C2466       C  0.99877258  0.46006694  0.04069674    -0.00100
C2467       C  0.50466137  0.43160134  0.04249452    -0.08700
C2468       C  0.50992303  0.41864994  0.06946365    -0.06000
C2469       C  0.99842188  0.43277538  0.09511047    -0.00100
C2470       C  0.98925990  0.46116923  0.09399402    -0.08600
C2471       C  0.97848970  0.47724835  0.12129875     0.61800
H2472       H  0.98786870  0.49656749  0.06590785     0.12500
H2473       H  0.51950062  0.39725662  0.06978856     0.12500
C2474       C  0.50195757  0.41313601  0.01606624     0.62000
F2475       F  0.97562903  0.50516917  0.11602465    -0.23100
F2476       F  0.01122389  0.47294880  0.14174644    -0.20500
F2477       F  0.93790263  0.46856225  0.13222248    -0.20100
F2478       F  0.53970699  0.39703216  0.01432112    -0.20200
F2479       F  0.49796086  0.42719957  0.99026527    -0.20500
F2480       F  0.46529524  0.39619932  0.01912349    -0.23200
C2481       C  0.49740985  0.47509723  0.51172646     0.02100
C2482       C  0.95935370  0.48569907  0.50243128     0.02100
C2483       C  0.95677472  0.00320940  0.97808048     0.02100
C2484       C  0.99757091  0.01061896  0.96375809     0.02100
C2485       C  0.54001687  0.00137704  0.97454434     0.02100
C2486       C  0.53829426  0.48366642  0.49855446     0.02100
O2487       O  0.97216931  0.09797837  0.77603203    -0.82000
C2488       C  0.50538622  0.16329384  0.88047152     0.97300
O2489       O  0.96826034  0.14984225  0.87228703    -0.71100
O2490       O  0.93164500  0.16296430  0.82199582    -0.74700
Al2491     Al  0.95056367  0.12922527  0.83797817     1.49000
C2492       C  0.92806070  0.16716275  0.79514686     0.92600
O2493       O  0.53476820  0.16576711  0.77930143    -0.81000
O2494       O  0.57793924  0.10086375  0.81767433    -0.74500
Al2495     Al  0.00332775  0.13209352  0.77997739     1.90100
O2496       O  0.58146144  0.15795302  0.81475323    -0.73600
O2497       O  0.53495268  0.10405701  0.86739232    -0.73400
O2498       O  0.53990881  0.16106200  0.86484652    -0.79100
O2499       O  0.96391382  0.09532198  0.85585076    -0.77300
O2500       O  0.50310633  0.13107020  0.81979017    -1.13400
O2501       O  0.92070133  0.10758694  0.80874183    -0.72600
C2502       C  0.93450648  0.09316918  0.78749892     0.98100
C2503       C  0.56911485  0.17217854  0.79329605     0.94500
Al2504     Al  0.55423766  0.13092606  0.83920820     1.55600
O2505       O  0.94938676  0.15279089  0.77682216    -0.77300
C2506       C  0.99823011  0.08975147  0.87019596     0.98700
C2507       C  0.58037013  0.09697761  0.79066228     0.93500
O2508       O  0.55648340  0.11093250  0.77387791    -0.82600
C2509       C  0.99956339  0.21732534  0.99471833     0.02100
C2510       C  0.95834212  0.22705314  0.00680561     0.02100
C2511       C  0.95466052  0.24723790  0.52637863     0.02100
C2512       C  0.99611352  0.25567077  0.53871375     0.02100
C2513       C  0.54302208  0.24874315  0.52347149     0.02100
C2514       C  0.54082396  0.22573456  0.00800641     0.02100
O2515       O  0.53714944  0.34676966  0.71903876    -0.82000
C2516       C  0.00166841  0.41316269  0.62045919     0.97300
O2517       O  0.53533122  0.40037954  0.62588408    -0.71100
O2518       O  0.57265502  0.41313067  0.67586547    -0.74700
Al2519     Al  0.55468248  0.37944727  0.65831720     1.49000
C2520       C  0.57419173  0.41775987  0.70284318     0.92600
O2521       O  0.96949399  0.41242921  0.71989284    -0.81000
O2522       O  0.92885081  0.34808621  0.67897695    -0.74500
Al2523     Al  0.50197309  0.37912665  0.71656835     1.90100
O2524       O  0.92181329  0.40480773  0.68537760    -0.73600
O2525       O  0.96818397  0.35627036  0.62941607    -0.73400
O2526       O  0.96742234  0.41180246  0.63674993    -0.79100
O2527       O  0.54184359  0.34645343  0.63817085    -0.77300
O2528       O  0.00279390  0.37903149  0.67819414    -1.13400
O2529       O  0.58705103  0.35785680  0.68594456    -0.72600
C2530       C  0.57476992  0.34325021  0.70719138     0.98100
C2531       C  0.93444794  0.41864900  0.70681940     0.94500
Al2532     Al  0.95099840  0.38017861  0.65948597     1.55600
O2533       O  0.55236630  0.40283277  0.72028882    -0.77300
C2534       C  0.50690964  0.34242695  0.62362178     0.98700
C2535       C  0.92900236  0.34176043  0.70557848     0.93500
O2536       O  0.95212072  0.35590600  0.72282459    -0.82600
C2537       C  0.75466444  0.02130191  0.77258431     0.02100
C2538       C  0.71274210  0.01365936  0.76070688     0.02100
C2539       C  0.71181394  0.49379035  0.73688042     0.02100
C2540       C  0.75280143  0.48455708  0.72420682     0.02100
C2541       C  0.79424385  0.49386770  0.73561840     0.02100
C2542       C  0.79553325  0.01462887  0.75793958     0.02100
O2543       O  0.69612784  0.34797338  0.52510483    -0.82000
C2544       C  0.74373000  0.41395267  0.62120868     0.97300
O2545       O  0.70915971  0.40946970  0.60655802    -0.71100
O2546       O  0.66599095  0.39790694  0.55783216    -0.74700
Al2547     Al  0.69593113  0.37574107  0.58643864     1.49000
C2548       C  0.67864016  0.40995283  0.53478387     0.92600
O2549       O  0.80149301  0.39252797  0.52129761    -0.81000
O2550       O  0.83091955  0.34988101  0.56078579    -0.74500
Al2551     Al  0.74876186  0.37065902  0.52793660     1.90100
O2552       O  0.81897630  0.40671939  0.56470814    -0.73600
O2553       O  0.78600472  0.34517195  0.60937815    -0.73400
O2554       O  0.77924473  0.40088492  0.61552074    -0.79100
O2555       O  0.71545874  0.35423861  0.61880235    -0.77300
O2556       O  0.74788512  0.37405173  0.56683696    -1.13400
O2557       O  0.67515102  0.34206207  0.57029231    -0.72600
C2558       C  0.67336129  0.33517840  0.54393941     0.98100
C2559       C  0.82275183  0.40865746  0.53753115     0.94500
Al2560     Al  0.79933072  0.37565653  0.58575011     1.55600
O2561       O  0.71547253  0.40379623  0.52283799    -0.77300
C2562       C  0.75125675  0.34168630  0.62448050     0.98700
C2563       C  0.81854131  0.33292734  0.54161123     0.93500
O2564       O  0.78238111  0.33694648  0.52848131    -0.82600
C2565       C  0.75108984  0.23605664  0.77529531     0.02100
C2566       C  0.79153847  0.24202141  0.76003773     0.02100
C2567       C  0.79298510  0.26172581  0.73731169     0.02100
C2568       C  0.75203206  0.27248629  0.72682019     0.02100
C2569       C  0.71155506  0.26699483  0.74211617     0.02100
C2570       C  0.71034046  0.24714267  0.76473156     0.02100
O2571       O  0.78054599  0.08690535  0.96934610    -0.82000
C2572       C  0.74887764  0.16210020  0.87584770     0.97300
O2573       O  0.78469079  0.14971367  0.88178330    -0.71100
O2574       O  0.81875821  0.15664318  0.93299189    -0.74700
Al2575     Al  0.80273663  0.12508469  0.91226764     1.49000
C2576       C  0.82015326  0.15936543  0.96002730     0.92600
O2577       O  0.71521753  0.15313843  0.97298642    -0.81000
O2578       O  0.67825529  0.09068028  0.92663112    -0.74500
Al2579     Al  0.74780798  0.12042495  0.96917883     1.90100
O2580       O  0.66790532  0.14647047  0.93746512    -0.73600
O2581       O  0.72206991  0.10184519  0.87912434    -0.73400
O2582       O  0.71365949  0.15685309  0.88989819    -0.79100
O2583       O  0.79264370  0.09417257  0.88886343    -0.77300
O2584       O  0.74990977  0.12307013  0.93031474    -1.13400
O2585       O  0.83242544  0.10027522  0.93851940    -0.72600
C2586       C  0.81815279  0.08344854  0.95741928     0.98100
C2587       C  0.67991153  0.15920844  0.95999320     0.94500
Al2588     Al  0.69967545  0.12385316  0.91011636     1.55600
O2589       O  0.79978978  0.14242248  0.97617596    -0.77300
C2590       C  0.75869505  0.08996610  0.87379715     0.98700
C2591       C  0.67365725  0.08502511  0.95314585     0.93500
O2592       O  0.69486666  0.09833163  0.97191679    -0.82600
C2593       C  0.77344081  0.20545723  0.85150960    -0.06000
C2594       C  0.74782931  0.18150525  0.85080532    -0.00100
C2595       C  0.72281146  0.17589026  0.82561607    -0.08700
C2596       C  0.72856252  0.19263013  0.80087884    -0.06000
C2597       C  0.75170909  0.21763118  0.80190363    -0.00100
C2598       C  0.77308640  0.22466410  0.82851260    -0.08600
C2599       C  0.79324925  0.25244977  0.83523517     0.61800
H2600       H  0.79165910  0.21013396  0.87103949     0.12500
H2601       H  0.71268199  0.18701368  0.78080255     0.12500
C2602       C  0.68798358  0.15345469  0.82527475     0.62000
F2603       F  0.77163527  0.26348563  0.85930381    -0.23100
F2604       F  0.78945018  0.27106770  0.81287965    -0.20500
F2605       F  0.83785337  0.24922866  0.84176969    -0.20100
F2606       F  0.65636687  0.15877706  0.84663888    -0.20200
F2607       F  0.70653115  0.12804317  0.83004160    -0.20500
F2608       F  0.66679729  0.15237933  0.79896514    -0.23200
C2609       C  0.77388506  0.31478950  0.69972846    -0.06000
C2610       C  0.75091318  0.28973573  0.69979619    -0.00100
C2611       C  0.72852580  0.28160802  0.67395314    -0.08700
C2612       C  0.72698900  0.29999689  0.65048178    -0.06000
C2613       C  0.75288301  0.32374407  0.65007672    -0.00100
C2614       C  0.77926230  0.33026187  0.67429636    -0.08600
C2615       C  0.81636667  0.35124266  0.67242945     0.61800
H2616       H  0.79045938  0.32122186  0.71922732     0.12500
H2617       H  0.70808105  0.29472670  0.63132498     0.12500
C2618       C  0.70840630  0.25356260  0.66854814     0.62000
F2619       F  0.83494428  0.35628211  0.69919218    -0.23100
F2620       F  0.80130322  0.37583692  0.66215329    -0.20500
F2621       F  0.84903286  0.34151142  0.65359887    -0.20100
F2622       F  0.66324957  0.25631818  0.66344047    -0.20200
F2623       F  0.71440023  0.23549517  0.69113222    -0.20500
F2624       F  0.72840303  0.24214065  0.64409287    -0.23200
C2625       C  0.74292779  0.42093840  0.67488024    -0.06000
C2626       C  0.74255273  0.43276330  0.64703430    -0.00100
C2627       C  0.74411460  0.46165087  0.64484311    -0.08700
C2628       C  0.74747146  0.47752102  0.67049732    -0.06000
C2629       C  0.75145866  0.46557943  0.69822071    -0.00100
C2630       C  0.74939009  0.43652506  0.70035530    -0.08600
C2631       C  0.75429630  0.42059036  0.72846174     0.61800
H2632       H  0.73803276  0.39904429  0.67689680     0.12500
H2633       H  0.74698590  0.49963910  0.66899829     0.12500
C2634       C  0.74174271  0.47556061  0.61553993     0.62000
F2635       F  0.79115047  0.40354361  0.72611052    -0.23100
F2636       F  0.71528954  0.90712637  0.73386841    -0.20500
F2637       F  0.75983382  0.43709524  0.75252310    -0.20100
F2638       F  0.70178170  0.46912252  0.60263865    -0.20200
F2639       F  0.77655429  0.46656194  0.59801076    -0.20500
F2640       F  0.74442605  0.50384712  0.61784150    -0.23200
C2641       C  0.77126792  0.06496407  0.79722987    -0.06000
C2642       C  0.75558988  0.03795414  0.79963930    -0.00100
C2643       C  0.74507892  0.02721715  0.82777675    -0.08700
C2644       C  0.74452772  0.04530123  0.85144155    -0.06000
C2645       C  0.76160118  0.07173996  0.84876163    -0.00100
C2646       C  0.77936058  0.08077186  0.82195188    -0.08600
C2647       C  0.81060914  0.10511938  0.82004388     0.61800
H2648       H  0.78039615  0.07279903  0.77598470     0.12500
H2649       H  0.73352978  0.03816603  0.87266991     0.12500
C2650       C  0.73861680  0.99709261  0.83521624     0.62000
F2651       F  0.82800934  0.10844943  0.79230474    -0.23100
F2652       F  0.84544387  0.10088198  0.83889435    -0.20500
F2653       F  0.78927851  0.12905678  0.82761946    -0.20100
F2654       F  0.76899750  0.48959767  0.85569681    -0.20200
F2655       F  0.74140559  0.97999542  0.81129481    -0.20500
F2656       F  0.69795907  0.99348221  0.84903508    -0.23200
C2657       C  0.64336315  0.33209195  0.73348415    -0.06000
C2658       C  0.60590750  0.32266443  0.71882265    -0.00100
C2659       C  0.60029586  0.29423515  0.71446324    -0.08700
C2660       C  0.63512377  0.27640692  0.72232518    -0.06000
C2661       C  0.67273214  0.28577585  0.73737864    -0.00100
C2662       C  0.67516388  0.31405762  0.74478523    -0.08600
C2663       C  0.70958494  0.32659942  0.76478434     0.61800
H2664       H  0.64784335  0.35384124  0.73645071     0.12500
H2665       H  0.63337312  0.25531708  0.71575033     0.12500
C2666       C  0.55816232  0.28300243  0.70111322     0.62000
F2667       F  0.73336306  0.34655670  0.75000851    -0.23100
F2668       F  0.73929566  0.30777279  0.77590751    -0.20500
F2669       F  0.68759768  0.33887575  0.78801734    -0.20100
F2670       F  0.55100686  0.29538330  0.67470076    -0.18600
F2671       F  0.52219397  0.28847405  0.71933231    -0.20500
F2672       F  0.56055750  0.25490448  0.69673621    -0.23200
C2673       C  0.88904294  0.29729488  0.69583560    -0.06000
C2674       C  0.90093821  0.31774146  0.71613336    -0.00100
C2675       C  0.88285858  0.31549201  0.74485373    -0.08700
C2676       C  0.85096360  0.29500376  0.75098658    -0.06000
C2677       C  0.83635160  0.27617346  0.73010387    -0.00100
C2678       C  0.85749943  0.27649084  0.70231084    -0.08600
C2679       C  0.84696975  0.25620589  0.67843884     0.61800
H2680       H  0.90349293  0.29802994  0.67413837     0.12500
H2681       H  0.83370293  0.29516599  0.77174932     0.12500
C2682       C  0.89241082  0.33631018  0.76836879     0.62000
F2683       F  0.82824768  0.26997470  0.65531050    -0.23100
F2684       F  0.81798182  0.23590149  0.68754511    -0.20500
F2685       F  0.88605254  0.24371869  0.66899285    -0.20100
F2686       F  0.87629383  0.36139731  0.75946768    -0.20200
F2687       F  0.93769906  0.33766584  0.77347836    -0.20500
F2688       F  0.87166958  0.32991724  0.79454634    -0.23200
C2689       C  0.89143732  0.46017979  0.69497895    -0.06000
C2690       C  0.90678262  0.44212164  0.71630269    -0.00100
C2691       C  0.89112376  0.44512325  0.74508934    -0.08700
C2692       C  0.85338993  0.46160541  0.74988559    -0.06000
C2693       C  0.83613808  0.47880754  0.72820306    -0.00100
C2694       C  0.85829127  0.47985740  0.70088240    -0.08600
C2695       C  0.85016064  0.50135203  0.67777184     0.61800
H2696       H  0.90597287  0.45900191  0.67357080     0.12500
H2697       H  0.83646754  0.46054018  0.77053833     0.12500
C2698       C  0.91467241  0.43202743  0.77057148     0.62000
F2699       F  0.83959452  0.48869906  0.65185777    -0.23100
F2700       F  0.88885977  0.51629002  0.67358044    -0.20500
F2701       F  0.81645410  0.51948326  0.68512971    -0.20100
F2702       F  0.95734871  0.44253779  0.77225249    -0.20200
F2703       F  0.91749846  0.40405833  0.76714494    -0.20500
F2704       F  0.89281157  0.43731311  0.79666272    -0.23200
C2705       C  0.61312904  0.46272660  0.69614601    -0.06000
C2706       C  0.60346419  0.44003436  0.71409376    -0.00100
C2707       C  0.62424172  0.43850416  0.74159272    -0.08700
C2708       C  0.66005062  0.45605038  0.74704560    -0.06000
C2709       C  0.67010964  0.47862593  0.72943342    -0.00100
C2710       C  0.64456580  0.48286885  0.70404582    -0.08600
C2711       C  0.64861308  0.50787932  0.68468561     0.61800
H2712       H  0.59563700  0.46492154  0.67580173     0.12500
H2713       H  0.68163117  0.45156800  0.76502072     0.12500
C2714       C  0.60913374  0.41905891  0.76554275     0.62000
F2715       F  0.65749811  0.49974921  0.65640079    -0.23100
F2716       F  0.68176299  0.52559717  0.69324753    -0.20500
F2717       F  0.60896060  0.02349170  0.68505349    -0.20100
F2718       F  0.61449844  0.39222042  0.75687474    -0.20200
F2719       F  0.56470858  0.42397340  0.77224952    -0.20500
F2720       F  0.63311095  0.42261527  0.79078199    -0.23200
C2721       C  0.60642023  0.22097486  0.97535227    -0.06000
C2722       C  0.58208032  0.21100036  0.99938105    -0.00100
C2723       C  0.59378103  0.18521127  0.01180395    -0.08700
C2724       C  0.62878081  0.17037170  0.99923737    -0.06000
C2725       C  0.64956333  0.17894775  0.97364932    -0.00100
C2726       C  0.63956743  0.20484744  0.96167467    -0.08600
C2727       C  0.66379107  0.21511634  0.93475445     0.61800
H2728       H  0.59729482  0.24070920  0.96634833     0.12500
H2729       H  0.63851320  0.15093662  0.00874929     0.12500
C2730       C  0.57115240  0.17166862  0.03781311     0.62000
F2731       F  0.65103374  0.24158650  0.92766663    -0.23100
F2732       F  0.65452339  0.19824159  0.91146478    -0.20500
F2733       F  0.70927264  0.21499820  0.93946279    -0.20100
F2734       F  0.53604368  0.18673902  0.04909425    -0.20200
F2735       F  0.60203057  0.16755169  0.05948525    -0.20500
F2736       F  0.55536170  0.14623793  0.02990119    -0.23200
C2737       C  0.90170167  0.21860601  0.96922267    -0.06000
C2738       C  0.91617720  0.21366929  0.99757652    -0.00100
C2739       C  0.89285423  0.19423159  0.01507060    -0.08700
C2740       C  0.85834105  0.17908848  0.00255605    -0.06000
C2741       C  0.84830692  0.18124077  0.97296679    -0.00100
C2742       C  0.86782794  0.20294838  0.95654442    -0.08600
C2743       C  0.85319620  0.21009730  0.92599623     0.61800
H2744       H  0.91907461  0.23393475  0.95641260     0.12500
H2745       H  0.84138492  0.16192849  0.51175074     0.12500
C2746       C  0.90535384  0.18301754  0.54202268     0.62000
F2747       F  0.86925510  0.23542804  0.91724252    -0.23100
F2748       F  0.80711880  0.21130698  0.92519210    -0.20500
F2749       F  0.86897202  0.19067759  0.90643823    -0.20100
F2750       F  0.87242929  0.19066566  0.56172180    -0.20200
F2751       F  0.94560155  0.19337763  0.55083940    -0.20500
F2752       F  0.90908334  0.15466703  0.54247216    -0.23200
C2753       C  0.57899438  0.29298915  0.51082007    -0.06000
C2754       C  0.58349151  0.26762410  0.52512131    -0.00100
C2755       C  0.62182617  0.26392079  0.54296939    -0.08700
C2756       C  0.65005280  0.28648554  0.54842221    -0.06000
C2757       C  0.64373800  0.31199956  0.53529290    -0.00100
C2758       C  0.60879411  0.31491954  0.51516520    -0.08600
C2759       C  0.60309806  0.34113347  0.49831908     0.61800
H2760       H  0.55090643  0.29569799  0.49650433     0.12500
H2761       H  0.67854255  0.28413035  0.56247823     0.12500
C2762       C  0.63765423  0.23635051  0.55352869     0.62000
F2763       F  0.56237866  0.34236292  0.48449500    -0.23100
F2764       F  0.63665287  0.34262791  0.47755401    -0.20500
F2765       F  0.60589599  0.36325779  0.51693150    -0.20100
F2766       F  0.66114323  0.22171717  0.03918207    -0.20200
F2767       F  0.60236929  0.22034572  0.56135919    -0.20500
F2768       F  0.66468759  0.23878062  0.57758604    -0.23200
C2769       C  0.89561629  0.27866958  0.50614579    -0.06000
C2770       C  0.91215291  0.26462045  0.53068216    -0.00100
C2771       C  0.89081362  0.27062952  0.55796770    -0.08700
C2772       C  0.86098458  0.29301102  0.56023066    -0.06000
C2773       C  0.84675800  0.30783845  0.53602036    -0.00100
C2774       C  0.86120734  0.29875445  0.50815613    -0.08600
C2775       C  0.84001629  0.30968023  0.48075481     0.61800
H2776       H  0.91065109  0.27428186  0.48518654     0.12500
H2777       H  0.84754944  0.29861065  0.58144086     0.12500
C2778       C  0.90608643  0.25777625  0.08925774     0.62000
F2779       F  0.85938436  0.29849956  0.45594941    -0.23100
F2780       F  0.84424038  0.33778491  0.47929840    -0.20500
F2781       F  0.79520524  0.30303261  0.48091440    -0.20100
F2782       F  0.92437076  0.23239735  0.58177765    -0.20200
F2783       F  0.86747185  0.24660769  0.10089341    -0.20500
F2784       F  0.92250076  0.27673477  0.10876267    -0.23200
C2785       C  0.98273234  0.30303897  0.55463823    -0.06000
C2786       C  0.50441939  0.27995103  0.55868457    -0.00100
C2787       C  0.52485025  0.27566124  0.58606236    -0.08700
C2788       C  0.53075189  0.29817358  0.60418779    -0.06000
C2789       C  0.50659072  0.32224837  0.60001485    -0.00100
C2790       C  0.97736011  0.32328124  0.57589176    -0.08600
C2791       C  0.94615113  0.34706834  0.57003410     0.61800
H2792       H  0.97242028  0.30694972  0.53255628     0.12500
H2793       H  0.54968313  0.29557596  0.62377371     0.12500
C2794       C  0.53565155  0.24813653  0.59953252     0.62000
F2795       F  0.93056137  0.34669579  0.54191620    -0.23100
F2796       F  0.96718592  0.37158680  0.57430550    -0.20500
F2797       F  0.90988928  0.34543404  0.58876508    -0.20100
F2798       F  0.58021715  0.24719058  0.60679419    -0.20200
F2799       F  0.52558507  0.22636127  0.58179556    -0.20500
F2800       F  0.51075497  0.24518465  0.62486194    -0.23200
C2801       C  0.61398174  0.21315908  0.80617523    -0.06000
C2802       C  0.59692303  0.19600810  0.78440526    -0.00100
C2803       C  0.61151498  0.19992065  0.75540248    -0.08700
C2804       C  0.64908962  0.21643461  0.75041448    -0.06000
C2805       C  0.66704355  0.23333987  0.77210478    -0.00100
C2806       C  0.64701372  0.23295979  0.80018930    -0.08600
C2807       C  0.65964498  0.25215614  0.82461370     0.61800
H2808       H  0.60153441  0.21092183  0.82817631     0.12500
H2809       H  0.66523035  0.21593040  0.72931135     0.12500
C2810       C  0.58759436  0.18728364  0.72980383     0.62000
F2811       F  0.62211202  0.26652744  0.83368708    -0.23100
F2812       F  0.69167597  0.27100283  0.81637848    -0.20500
F2813       F  0.67541272  0.23706144  0.84777636    -0.20100
F2814       F  0.54389979  0.19649485  0.72972274    -0.20200
F2815       F  0.58788302  0.15908288  0.73165764    -0.20500
F2816       F  0.60718763  0.19456697  0.70353097    -0.23200
C2817       C  0.86308738  0.17839811  0.76608353    -0.06000
C2818       C  0.89631798  0.18763368  0.78462617    -0.00100
C2819       C  0.89870097  0.21567561  0.79208095    -0.08700
C2820       C  0.86552158  0.23347377  0.78188253    -0.06000
C2821       C  0.83043715  0.22388011  0.76478220    -0.00100
C2822       C  0.83015769  0.19600908  0.75566403    -0.08600
C2823       C  0.79631525  0.18331520  0.73534680     0.61800
H2824       H  0.86201611  0.15688479  0.76031309     0.12500
H2825       H  0.86542900  0.25462084  0.78878742     0.12500
C2826       C  0.93514903  0.22650580  0.81142632     0.62000
F2827       F  0.81857731  0.17252614  0.71140625    -0.23100
F2828       F  0.76489936  0.20165772  0.72541249    -0.20500
F2829       F  0.77432929  0.16220189  0.74952103    -0.20100
F2830       F  0.97645737  0.21781653  0.80119996    -0.20200
F2831       F  0.92826987  0.21682505  0.83932087    -0.20500
F2832       F  0.93537156  0.25491850  0.81234461    -0.23200
C2833       C  0.89415312  0.04992124  0.79717037    -0.06000
C2834       C  0.90580237  0.07021885  0.77708970    -0.00100
C2835       C  0.88625107  0.06948360  0.74925912    -0.08700
C2836       C  0.85237532  0.04997671  0.74368953    -0.06000
C2837       C  0.83841840  0.03036523  0.76445720    -0.00100
C2838       C  0.86207982  0.02963004  0.79127763    -0.08600
C2839       C  0.85526812  0.50728116  0.81621414     0.61800
H2840       H  0.91016010  0.05012734  0.81819455     0.12500
H2841       H  0.83456322  0.05105850  0.72350210     0.12500
C2842       C  0.89983736  0.08991161  0.72599637     0.62000
F2843       F  0.89533637  0.49378582  0.82045990    -0.23100
F2844       F  0.82381186  0.48803397  0.80958344    -0.20500
F2845       F  0.84397777  0.02132836  0.84056096    -0.20100
F2846       F  0.94478120  0.08691279  0.71961914    -0.20200
F2847       F  0.89191295  0.11630239  0.73572216    -0.20500
F2848       F  0.87641155  0.08613243  0.70057853    -0.23200
C2849       C  0.60801641  0.04950497  0.79347687    -0.06000
C2850       C  0.61031383  0.07481701  0.77935104    -0.00100
C2851       C  0.64179897  0.07812055  0.75640349    -0.08700
C2852       C  0.67369021  0.05724673  0.75136845    -0.06000
C2853       C  0.67325461  0.03227852  0.76670564    -0.00100
C2854       C  0.63784193  0.02788944  0.78724407    -0.08600
C2855       C  0.62717152  0.00124687  0.80241006     0.61800
H2856       H  0.58198213  0.04655079  0.80976703     0.12500
H2857       H  0.69995843  0.06038905  0.73535712     0.12500
C2858       C  0.64193700  0.10327272  0.73720037     0.62000
F2859       F  0.58962876  0.98992568  0.79009106    -0.23100
F2860       F  0.61832299  0.00598492  0.83158695    -0.20500
F2861       F  0.66116895  0.98270878  0.80046720    -0.20100
F2862       F  0.64750444  0.12643273  0.75387280    -0.20200
F2863       F  0.60191823  0.10485539  0.72270140    -0.20500
F2864       F  0.67598994  0.10252139  0.71659994    -0.23200
C2865       C  0.01362722  0.21712010  0.94075009    -0.06000
C2866       C  0.00100806  0.20205680  0.96573659    -0.00100
C2867       C  0.49314769  0.17372831  0.96236662    -0.08700
C2868       C  0.49731059  0.16228567  0.93433062    -0.06000
C2869       C  0.50653943  0.17787019  0.90942668    -0.00100
C2870       C  0.01651835  0.20506111  0.91263827    -0.08600
C2871       C  0.03567174  0.22135746  0.88753334     0.61800
H2872       H  0.02224966  0.23851031  0.94359341     0.12500
H2873       H  0.49489544  0.14036358  0.93216811     0.12500
C2874       C  0.47840677  0.15411336  0.98594617     0.62000
F2875       F  0.04168960  0.24868481  0.89470292    -0.23100
F2876       F  0.00764876  0.22015369  0.86401121    -0.20500
F2877       F  0.07666819  0.21034321  0.87987599    -0.20100
F2878       F  0.43567836  0.14538026  0.98015750    -0.20200
F2879       F  0.50624615  0.13142749  0.98606368    -0.20500
F2880       F  0.47843390  0.16571863  0.01309765    -0.23200
C2881       C  0.91145955  0.04371465  0.99228194    -0.06000
C2882       C  0.91566869  0.02059493  0.97403451    -0.00100
C2883       C  0.88282591  0.01644601  0.95245219    -0.08700
C2884       C  0.84960125  0.03674038  0.94857082    -0.06000
C2885       C  0.84711047  0.06024406  0.96621008    -0.00100
C2886       C  0.87646778  0.06280147  0.98970397    -0.08600
C2887       C  0.87093797  0.08581546  0.01171888     0.61800
H2888       H  0.93732960  0.04748824  0.00794719     0.12500
H2889       H  0.82613002  0.03462837  0.93097262     0.12500
C2890       C  0.88193649  0.49235079  0.93077825     0.62000
F2891       F  0.90329849  0.08483702  0.03288834    -0.23100
F2892       F  0.82963998  0.08361684  0.02520881    -0.20500
F2893       F  0.87355993  0.11096295  0.99812202    -0.20100
F2894       F  0.84170091  0.47903486  0.93501841    -0.20200
F2895       F  0.91571124  0.47381899  0.93574169    -0.20500
F2896       F  0.88483003  0.50085755  0.90217336    -0.23200
C2897       C  0.57707308  0.04469706  0.98634275    -0.06000
C2898       C  0.57938724  0.02007686  0.97042277    -0.00100
C2899       C  0.61603150  0.01613004  0.95080981    -0.08700
C2900       C  0.64704245  0.03749764  0.94701559    -0.06000
C2901       C  0.64309748  0.06248749  0.96186065    -0.00100
C2902       C  0.60844347  0.06584070  0.98272359    -0.08600
C2903       C  0.60617924  0.09314228  0.49873249     0.61800
H2904       H  0.55132922  0.04916343  0.50192940     0.12500
H2905       H  0.67450362  0.03485708  0.93166560     0.12500
C2906       C  0.62532231  0.99043598  0.93338434     0.62000
F2907       F  0.57049420  0.09281101  0.51811662    -0.23100
F2908       F  0.60038288  0.11493176  0.47996464    -0.20500
F2909       F  0.64006063  0.09616702  0.01705902    -0.20100
F2910       F  0.63411736  0.99726490  0.90470740    -0.20200
F2911       F  0.59032636  0.97246824  0.93388445    -0.20500
F2912       F  0.66250487  0.97746575  0.94444151    -0.23200
C2913       C  0.51317085  0.04274095  0.88725906    -0.06000
C2914       C  0.99540512  0.06855373  0.89292394    -0.00100
C2915       C  0.97849133  0.07524149  0.92068594    -0.08700
C2916       C  0.98724639  0.05720031  0.94353156    -0.06000
C2917       C  0.99699488  0.02953453  0.93811411    -0.00100
C2918       C  0.50988175  0.02189660  0.90837430    -0.08600
C2919       C  0.51883398  0.49449247  0.90052782     0.61800
H2920       H  0.52493104  0.03786929  0.86546958     0.12500
H2921       H  0.98072165  0.06383033  0.96558354     0.12500
C2922       C  0.93591679  0.09176144  0.92345374     0.62000
F2923       F  0.48750237  0.48897349  0.87953324    -0.23100
F2924       F  0.99985896  0.47254882  0.92099681    -0.20500
F2925       F  0.56050645  0.49170525  0.88778761    -0.20100
F2926       F  0.90156630  0.07544332  0.91385213    -0.20200
F2927       F  0.44069394  0.11753623  0.90955140    -0.20500
F2928       F  0.92786993  0.09933590  0.95190454    -0.23200
C2929       C  0.85553808  0.45515674  0.53976088    -0.06000
C2930       C  0.85304115  0.42990688  0.52516038    -0.00100
C2931       C  0.88200536  0.42501084  0.50113784    -0.08700
C2932       C  0.91376767  0.44500159  0.49376557    -0.06000
C2933       C  0.91850761  0.46939476  0.50965627    -0.00100
C2934       C  0.88792787  0.47497305  0.53276878    -0.08600
C2935       C  0.89455978  0.99923874  0.55570901     0.61800
H2936       H  0.83268261  0.45911101  0.55767646     0.12500
H2937       H  0.93685024  0.44116037  0.47599167     0.12500
C2938       C  0.88172518  0.39820404  0.48445578     0.62000
F2939       F  0.88046715  0.99352347  0.07801124    -0.23100
F2940       F  0.84556415  0.01438773  0.04113721    -0.20500
F2941       F  0.92889715  0.01664653  0.54847770    -0.20100
F2942       F  0.84143527  0.39519951  0.47054219    -0.20200
F2943       F  0.88807778  0.37680469  0.50357142    -0.20500
F2944       F  0.91532505  0.39688161  0.46356714    -0.23200
C2945       C  0.63683349  0.45362290  0.54060443    -0.06000
C2946       C  0.64948829  0.43167112  0.52231957    -0.00100
C2947       C  0.63015281  0.43001588  0.49432644    -0.08700
C2948       C  0.59486033  0.44792971  0.48782299    -0.06000
C2949       C  0.58093160  0.46925283  0.50634596    -0.00100
C2950       C  0.60417630  0.47310523  0.53269069    -0.08600
C2951       C  0.59630403  0.49704869  0.55319451     0.61800
H2952       H  0.65239474  0.45541915  0.56159965     0.12500
H2953       H  0.57259618  0.44231159  0.97237901     0.12500
C2954       C  0.63778444  0.40674017  0.97389231     0.62000
F2955       F  0.63534748  0.51189727  0.55542070    -0.23100
F2956       F  0.58471395  0.48730555  0.58045877    -0.20500
F2957       F  0.56322759  0.51467130  0.54397950    -0.20100
F2958       F  0.67049319  0.38827936  0.98122663    -0.20200
F2959       F  0.65806373  0.42373407  0.44644701    -0.20500
F2960       F  0.59946215  0.39232752  0.96756317    -0.23200
C2961       C  0.99006778  0.47226771  0.56644116    -0.06000
C2962       C  0.00123003  0.45911466  0.54012886    -0.00100
C2963       C  0.50597540  0.42976057  0.53940649    -0.08700
C2964       C  0.51134901  0.41681565  0.56643165    -0.06000
C2965       C  0.00234449  0.43038362  0.59372828    -0.00100
C2966       C  0.98784676  0.45798207  0.59298187    -0.08600
C2967       C  0.96923804  0.47211644  0.61972676     0.61800
H2968       H  0.98290472  0.49394417  0.56608034     0.12500
H2969       H  0.52250681  0.39565788  0.56679303     0.12500
C2970       C  0.50755544  0.41167563  0.51260836     0.62000
F2971       F  0.96450085  0.50013186  0.61574374    -0.23100
F2972       F  0.99690158  0.46799341  0.64317996    -0.20500
F2973       F  0.92766639  0.46126432  0.62552605    -0.20100
F2974       F  0.54834974  0.39891814  0.51095361    -0.20200
F2975       F  0.50112840  0.42571376  0.48700496    -0.20500
F2976       F  0.47493528  0.39178642  0.51493100    -0.23200
C2977       C  0.49888542  0.97460011  0.01128097     0.02100
C2978       C  0.95770810  0.98445873  0.00163466     0.02100
C2979       C  0.95829805  0.50477607  0.47925674     0.02100
C2980       C  0.99896007  0.51168053  0.46457341     0.02100
C2981       C  0.53758235  0.50260041  0.47507787     0.02100
C2982       C  0.53996054  0.98258705  0.99815976     0.02100
O2983       O  0.97051917  0.59724248  0.27617404    -0.82000
C2984       C  0.49993173  0.66284404  0.37871883     0.97300
O2985       O  0.96768065  0.64980483  0.37204283    -0.71100
O2986       O  0.92925271  0.66155543  0.32215396    -0.74700
Al2987     Al  0.94974491  0.62842526  0.33824883     1.49000
C2988       C  0.92584328  0.66601699  0.29537386     0.92600
O2989       O  0.53432354  0.66436479  0.27844861    -0.81000
O2990       O  0.57615682  0.60011879  0.31903050    -0.74500
Al2991     Al  0.00186149  0.63151890  0.27999837     1.90100
O2992       O  0.57945509  0.65714648  0.31474334    -0.73600
O2993       O  0.53106809  0.60431858  0.36777284    -0.73400
O2994       O  0.53471177  0.66124103  0.36328613    -0.79100
O2995       O  0.96447232  0.59496960  0.35628234    -0.77300
O2996       O  0.50116355  0.62985287  0.31860651    -1.13400
O2997       O  0.91984524  0.60598984  0.30959580    -0.72600
C2998       C  0.93342580  0.59180268  0.28813672     0.98100
C2999       C  0.56785011  0.67116327  0.29299196     0.94500
Al3000     Al  0.55118871  0.63056616  0.33916022     1.55600
O3001       O  0.94793447  0.65223658  0.27692313    -0.77300
C3002       C  0.99873250  0.59036666  0.37096499     0.98700
C3003       C  0.57969182  0.59549458  0.29219237     0.93500
O3004       O  0.55682671  0.60921261  0.27452689    -0.82600
C3005       C  0.99851406  0.71822041  0.49372072     0.02100
C3006       C  0.95752582  0.72801991  0.50604499     0.02100
C3007       C  0.95977611  0.74851056  0.02607734     0.02100
C3008       C  0.00191091  0.75760082  0.03697936     0.02100
C3009       C  0.53823608  0.74648081  0.02777777     0.02100
C3010       C  0.53866926  0.72663087  0.50465588     0.02100
O3011       O  0.53613182  0.84786749  0.21982629    -0.82000
C3012       C  0.99907770  0.91368982  0.12143975     0.97300
O3013       O  0.53441760  0.90012634  0.12573866    -0.71100
O3014       O  0.57180292  0.91241211  0.17558516    -0.74700
Al3015     Al  0.55301685  0.87901046  0.15827844     1.49000
C3016       C  0.57126875  0.91821978  0.20234262     0.92600
O3017       O  0.96325868  0.91010096  0.22047234    -0.81000
O3018       O  0.92991878  0.84497643  0.17797714    -0.74500
Al3019     Al  0.49935685  0.87943745  0.21644378     1.90100
O3020       O  0.91764655  0.90134365  0.18481319    -0.73600
O3021       O  0.97178588  0.85546603  0.12946729    -0.73400
O3022       O  0.96415672  0.91058752  0.13683829    -0.79100
O3023       O  0.53890391  0.84580166  0.13853188    -0.77300
O3024       O  0.00089406  0.87876160  0.17895655    -1.13400
O3025       O  0.58519405  0.85746139  0.18590856    -0.72600
C3026       C  0.57342904  0.84379408  0.20788732     0.98100
C3027       C  0.92841349  0.91529735  0.20661486     0.94500
Al3028     Al  0.95016108  0.87812768  0.15919473     1.55600
O3029       O  0.54803604  0.90428690  0.21997737    -0.77300
C3030       C  0.50410783  0.84251922  0.12360468     0.98700
C3031       C  0.92870690  0.83891573  0.20467974     0.93500
O3032       O  0.94972288  0.85372326  0.22231195    -0.82600
C3033       C  0.75492273  0.51849482  0.27567056     0.02100
C3034       C  0.71250581  0.51141252  0.26420995     0.02100
C3035       C  0.70937899  0.99358477  0.23443311     0.02100
C3036       C  0.74990617  0.98378238  0.22171774     0.02100
C3037       C  0.79159096  0.99373779  0.23204914     0.02100
C3038       C  0.79500557  0.51203625  0.26028293     0.02100
O3039       O  0.69575912  0.84396099  0.02495155    -0.82000
C3040       C  0.74053240  0.91199011  0.11999655     0.97300
O3041       O  0.70605399  0.90637670  0.10574889    -0.71100
O3042       O  0.66400142  0.89395865  0.05710532    -0.74700
Al3043     Al  0.69438110  0.87240673  0.08596991     1.49000
C3044       C  0.67653954  0.90600274  0.03403828     0.92600
O3045       O  0.80017469  0.88997837  0.02075214    -0.81000
O3046       O  0.83046633  0.84817785  0.06149022    -0.74500
Al3047     Al  0.74789809  0.86739439  0.02771886     1.90100
O3048       O  0.81693579  0.90501646  0.06394000    -0.73600
O3049       O  0.78553018  0.84389686  0.11003111    -0.73400
O3050       O  0.77672415  0.89955589  0.11463557    -0.79100
O3051       O  0.71430566  0.85144642  0.11856686    -0.77300
O3052       O  0.74660833  0.87132063  0.06657881    -1.13400
O3053       O  0.67480383  0.83841882  0.07016332    -0.72600
C3054       C  0.67289866  0.83134370  0.04390101     0.98100
C3055       C  0.82103707  0.90657813  0.03673993     0.94500
Al3056     Al  0.79790301  0.87404327  0.08564865     1.55600
O3057       O  0.71341811  0.89997745  0.02203855    -0.77300
C3058       C  0.75063220  0.83977985  0.12478931     0.98700
C3059       C  0.81884233  0.83077224  0.04257285     0.93500
O3060       O  0.78276291  0.83415932  0.02910317    -0.82600
C3061       C  0.74872271  0.73573125  0.27602438     0.02100
C3062       C  0.78926361  0.74119829  0.26072575     0.02100
C3063       C  0.79114227  0.76103712  0.23821577     0.02100
C3064       C  0.75047368  0.77212140  0.22786970     0.02100
C3065       C  0.70985050  0.76715763  0.24313638     0.02100
C3066       C  0.70814141  0.74727077  0.26569767     0.02100
O3067       O  0.78049531  0.58783787  0.46991225    -0.82000
C3068       C  0.74871009  0.66116587  0.37530200     0.97300
O3069       O  0.78480025  0.64903983  0.38121621    -0.71100
O3070       O  0.81776795  0.65767908  0.43255958    -0.74700
Al3071     Al  0.80316215  0.62537752  0.41252997     1.49000
C3072       C  0.81881352  0.66066598  0.45959009     0.92600
O3073       O  0.71377935  0.65387776  0.47155710    -0.81000
O3074       O  0.67944398  0.58989450  0.42618692    -0.74500
Al3075     Al  0.74703180  0.62120894  0.46887947     1.90100
O3076       O  0.66705224  0.64562741  0.43608061    -0.73600
O3077       O  0.72425039  0.60089485  0.37900919    -0.73400
O3078       O  0.71361196  0.65578578  0.38929480    -0.79100
O3079       O  0.79450958  0.59375440  0.39005266    -0.77300
O3080       O  0.74999958  0.62312994  0.43010507    -1.13400
O3081       O  0.83310953  0.60153091  0.43974121    -0.72600
C3082       C  0.81858936  0.58461209  0.45850116     0.98100
C3083       C  0.67849246  0.65924001  0.45816180     0.94500
Al3084     Al  0.70025267  0.62300363  0.40946502     1.55600
O3085       O  0.79857129  0.64371126  0.47583615    -0.77300
C3086       C  0.76118194  0.58904755  0.37460835     0.98700
C3087       C  0.67347875  0.58507499  0.45277036     0.93500
O3088       O  0.69409557  0.59883114  0.47151815    -0.82600
C3089       C  0.77298558  0.70439251  0.35123645    -0.06000
C3090       C  0.74705209  0.68061774  0.35054721    -0.00100
C3091       C  0.72058850  0.67548711  0.32589303    -0.08700
C3092       C  0.72585542  0.69235092  0.30128724    -0.06000
C3093       C  0.74929726  0.71722777  0.30238449    -0.00100
C3094       C  0.77165043  0.72393782  0.32869733    -0.08600
C3095       C  0.79166513  0.75171625  0.33565566     0.61800
H3096       H  0.79204585  0.70871397  0.37050714     0.12500
H3097       H  0.70916693  0.68704877  0.28140944     0.12500
C3098       C  0.68424914  0.65391348  0.32618153     0.62000
F3099       F  0.77012985  0.76242446  0.35991138    -0.23100
F3100       F  0.78757710  0.77055282  0.31351083    -0.20500
F3101       F  0.83632001  0.74857490  0.34207751    -0.20100
F3102       F  0.65262779  0.66109362  0.34694980    -0.20200
F3103       F  0.70046255  0.62821317  0.33250716    -0.20500
F3104       F  0.66385529  0.65214881  0.29959140    -0.23200
C3105       C  0.77202162  0.81409413  0.20067692    -0.06000
C3106       C  0.74986881  0.78881736  0.20066790    -0.00100
C3107       C  0.72942236  0.77970310  0.17456480    -0.08700
C3108       C  0.72821170  0.79762786  0.15070195    -0.06000
C3109       C  0.75251390  0.82204740  0.15054974    -0.00100
C3110       C  0.77747560  0.82942160  0.17517967    -0.08600
C3111       C  0.81236436  0.85181375  0.17397913     0.61800
H3112       H  0.78795364  0.82075314  0.22037737     0.12500
H3113       H  0.71070300  0.79161397  0.13122267     0.12500
C3114       C  0.71140048  0.75103332  0.16947835     0.62000
F3115       F  0.83139125  0.85632020  0.20073924    -0.23100
F3116       F  0.79410390  0.87612207  0.16503543    -0.20500
F3117       F  0.84559731  0.84423318  0.15449517    -0.20100
F3118       F  0.66639588  0.75248790  0.16345619    -0.20200
F3119       F  0.71735207  0.73367027  0.19267152    -0.20500
F3120       F  0.73337255  0.73951709  0.14577829    -0.23200
C3121       C  0.73370349  0.92004812  0.17305339    -0.06000
C3122       C  0.73845830  0.93132882  0.14519925    -0.00100
C3123       C  0.74593907  0.95980155  0.14262348    -0.08700
C3124       C  0.74948562  0.97588878  0.16808113    -0.06000
C3125       C  0.74805134  0.96431013  0.19610736    -0.00100
C3126       C  0.74069980  0.93550913  0.19849474    -0.08600
C3127       C  0.74164860  0.91937831  0.22662356     0.61800
H3128       H  0.72580598  0.89844087  0.17502075     0.12500
H3129       H  0.75305281  0.99787035  0.16619620     0.12500
C3130       C  0.74984962  0.97295227  0.11301855     0.62000
F3131       F  0.77609634  0.90048681  0.22514711    -0.23100
F3132       F  0.69554335  0.40713896  0.23118330    -0.20500
F3133       F  0.74796352  0.93553917  0.25076108    -0.20100
F3134       F  0.71081869  0.96892582  0.09796881    -0.20200
F3135       F  0.78483734  0.96100423  0.09790208    -0.20500
F3136       F  0.75764676  0.00088989  0.11479310    -0.23200
C3137       C  0.76939028  0.56284841  0.29868857    -0.06000
C3138       C  0.75751033  0.53527689  0.30240478    -0.00100
C3139       C  0.75300414  0.52438550  0.33110292    -0.08700
C3140       C  0.75342274  0.54281766  0.35446324    -0.06000
C3141       C  0.76517979  0.57019660  0.35025685    -0.00100
C3142       C  0.77830652  0.57953313  0.32252140    -0.08600
C3143       C  0.80600225  0.60526303  0.31851906     0.61800
H3144       H  0.77445838  0.57073481  0.27692316     0.12500
H3145       H  0.74641238  0.53557889  0.37632817     0.12500
C3146       C  0.75068709  0.49410051  0.33902644     0.62000
F3147       F  0.82255290  0.60754872  0.29043992    -0.23100
F3148       F  0.84157050  0.60435598  0.33724895    -0.20500
F3149       F  0.78145293  0.62836868  0.32447413    -0.20100
F3150       F  0.77187957  0.98957533  0.35149363    -0.20200
F3151       F  0.75074561  0.47698307  0.31507786    -0.20500
F3152       F  0.71299033  0.48907759  0.35571998    -0.23200
C3153       C  0.64174650  0.83262689  0.23481237    -0.06000
C3154       C  0.60444462  0.82326356  0.21990995    -0.00100
C3155       C  0.59887903  0.79484006  0.21551216    -0.08700
C3156       C  0.63390914  0.77700040  0.22293355    -0.06000
C3157       C  0.67141924  0.78622703  0.23815222    -0.00100
C3158       C  0.67382794  0.81450301  0.24578181    -0.08600
C3159       C  0.70853597  0.82697531  0.26562731     0.61800
H3160       H  0.64584748  0.85437813  0.23822485     0.12500
H3161       H  0.63225859  0.75598532  0.21604866     0.12500
C3162       C  0.55628977  0.78361626  0.20286272     0.62000
F3163       F  0.73144098  0.84739399  0.25095769    -0.23100
F3164       F  0.73903180  0.80823094  0.27600237    -0.20500
F3165       F  0.68694552  0.83865892  0.28935178    -0.20100
F3166       F  0.54846815  0.79583610  0.17649405    -0.18600
F3167       F  0.52093722  0.78937846  0.22148862    -0.20500
F3168       F  0.55830239  0.75547373  0.19874948    -0.23200
C3169       C  0.88510671  0.79582058  0.19458297    -0.06000
C3170       C  0.90089748  0.81488341  0.21518143    -0.00100
C3171       C  0.88828692  0.81057036  0.24481782    -0.08700
C3172       C  0.85266244  0.79261553  0.25111550    -0.06000
C3173       C  0.83480150  0.77480275  0.23029253    -0.00100
C3174       C  0.85444444  0.77484392  0.20205987    -0.08600
C3175       C  0.84426924  0.75353800  0.17917497     0.61800
H3176       H  0.89701110  0.79711635  0.17229351     0.12500
H3177       H  0.83745567  0.79306230  0.27254377     0.12500
C3178       C  0.91280214  0.82334023  0.27015744     0.62000
F3179       F  0.82504372  0.76606288  0.15547240    -0.23100
F3180       F  0.81609094  0.73325400  0.18938728    -0.20500
F3181       F  0.88372648  0.74115152  0.17024490    -0.20100
F3182       F  0.90537466  0.85117046  0.27145199    -0.20200
F3183       F  0.95805037  0.81831201  0.26714770    -0.20500
F3184       F  0.89907022  0.81229198  0.29649898    -0.23200
C3185       C  0.89351622  0.95991256  0.19671929    -0.06000
C3186       C  0.89899912  0.93781549  0.21575353    -0.00100
C3187       C  0.87236630  0.93594913  0.24101729    -0.08700
C3188       C  0.84002614  0.95608790  0.24601998    -0.06000
C3189       C  0.83211664  0.97721395  0.22607668    -0.00100
C3190       C  0.85975642  0.97958481  0.20102598    -0.08600
C3191       C  0.85501767  0.00148211  0.17792860     0.61800
H3192       H  0.91497320  0.96121942  0.17779290     0.12500
H3193       H  0.81814107  0.95418892  0.26464369     0.12500
C3194       C  0.87501600  0.91136898  0.26092996     0.62000
F3195       F  0.84720537  0.98907302  0.15143409    -0.23100
F3196       F  0.89426948  0.01622222  0.17584641    -0.20500
F3197       F  0.82064886  0.01963065  0.18362900    -0.20100
F3198       F  0.84540760  0.91325940  0.28418545    -0.20200
F3199       F  0.91759077  0.90893984  0.27186054    -0.20500
F3200       F  0.86455083  0.88821735  0.24514146    -0.23200
C3201       C  0.61064214  0.96266972  0.19435054    -0.06000
C3202       C  0.59989359  0.94080425  0.21317618    -0.00100
C3203       C  0.61979703  0.93998410  0.24093175    -0.08700
C3204       C  0.65556562  0.95752124  0.24612157    -0.06000
C3205       C  0.66718574  0.97900450  0.22745652    -0.00100
C3206       C  0.64271521  0.98257997  0.20158845    -0.08600
C3207       C  0.64880718  0.00657809  0.18102559     0.61800
H3208       H  0.59400241  0.96417110  0.17366528     0.12500
H3209       H  0.67654000  0.95337935  0.26439131     0.12500
C3210       C  0.60468006  0.92077475  0.26513268     0.62000
F3211       F  0.65754827  0.99696674  0.15323539    -0.23100
F3212       F  0.68305516  0.02381241  0.18892639    -0.20500
F3213       F  0.61562589  0.52180630  0.18214185    -0.20100
F3214       F  0.61018432  0.89381378  0.25679278    -0.20200
F3215       F  0.56023837  0.92571966  0.27174736    -0.20500
F3216       F  0.62859230  0.92463344  0.29035798    -0.23200
C3217       C  0.60374525  0.72090256  0.47170790    -0.06000
C3218       C  0.57928112  0.71130218  0.49584066    -0.00100
C3219       C  0.59085352  0.68563904  0.50866563    -0.08700
C3220       C  0.62593486  0.67064891  0.49644163    -0.06000
C3221       C  0.64733887  0.67900682  0.47101113    -0.00100
C3222       C  0.63729717  0.70471183  0.45854674    -0.08600
C3223       C  0.66223599  0.71491492  0.43188630     0.61800
H3224       H  0.59487499  0.74058795  0.46248954     0.12500
H3225       H  0.63570607  0.65142575  0.50635126     0.12500
C3226       C  0.56858138  0.67258005  0.53508442     0.62000
F3227       F  0.64819864  0.74087449  0.42377723    -0.23100
F3228       F  0.65532291  0.69730103  0.40885620    -0.20500
F3229       F  0.70735970  0.71602946  0.43763468    -0.20100
F3230       F  0.53401340  0.68803366  0.54642077    -0.20200
F3231       F  0.59980601  0.66854680  0.55657455    -0.20500
F3232       F  0.55224921  0.64714835  0.52771983    -0.23200
C3233       C  0.90029201  0.71997983  0.46864455    -0.06000
C3234       C  0.91510515  0.71486062  0.49690429    -0.00100
C3235       C  0.89183202  0.69539962  0.51439420    -0.08700
C3236       C  0.85693344  0.68050750  0.50201703    -0.06000
C3237       C  0.84670025  0.68271402  0.47247616    -0.00100
C3238       C  0.86616504  0.70443750  0.45605427    -0.08600
C3239       C  0.85138621  0.71163402  0.42556074     0.61800
H3240       H  0.91762522  0.73529583  0.45579508     0.12500
H3241       H  0.84396860  0.66377181  0.01336629     0.12500
C3242       C  0.90650794  0.68721765  0.04399941     0.62000
F3243       F  0.86659645  0.73725795  0.41710619    -0.23100
F3244       F  0.80529218  0.71225442  0.42464149    -0.20500
F3245       F  0.86791336  0.69254910  0.40589010    -0.20100
F3246       F  0.87462037  0.69841436  0.06247009    -0.20200
F3247       F  0.94796365  0.69635325  0.05201390    -0.20500
F3248       F  0.90655360  0.65899141  0.04755671    -0.23200
C3249       C  0.57478343  0.79021750  0.01438277    -0.06000
C3250       C  0.57834705  0.76544334  0.02985397    -0.00100
C3251       C  0.61744495  0.76136774  0.04686994    -0.08700
C3252       C  0.64836505  0.78298963  0.04967333    -0.06000
C3253       C  0.64275246  0.80823984  0.03577512    -0.00100
C3254       C  0.60637757  0.81144247  0.01678112    -0.08600
C3255       C  0.60109623  0.83713841  0.99898627     0.61800
H3256       H  0.54616687  0.79297333  0.00052614     0.12500
H3257       H  0.67738108  0.78029374  0.06323041     0.12500
C3258       C  0.62983897  0.73480016  0.06144446     0.62000
F3259       F  0.56094987  0.83780806  0.98443468    -0.23100
F3260       F  0.63530115  0.83805222  0.97863441    -0.20500
F3261       F  0.60295586  0.85986419  0.01688796    -0.20100
F3262       F  0.66110540  0.72326059  0.52930720    -0.20200
F3263       F  0.59336445  0.71867943  0.06598382    -0.20500
F3264       F  0.64880714  0.73971070  0.08823066    -0.23200
C3265       C  0.89774462  0.77787047  0.00705887    -0.06000
C3266       C  0.91702576  0.76512020  0.03149339    -0.00100
C3267       C  0.89804408  0.77163803  0.05934254    -0.08700
C3268       C  0.86554571  0.79264043  0.06159394    -0.06000
C3269       C  0.84832572  0.80618958  0.03725448    -0.00100
C3270       C  0.86220794  0.79703898  0.00931668    -0.08600
C3271       C  0.83982021  0.80725402  0.98197389     0.61800
H3272       H  0.91191086  0.77342180  0.98587476     0.12500
H3273       H  0.85332151  0.79862860  0.08297779     0.12500
C3274       C  0.90515166  0.75886383  0.58841115     0.62000
F3275       F  0.85930497  0.79630263  0.95708225    -0.23100
F3276       F  0.84248921  0.83542905  0.98019700    -0.20500
F3277       F  0.79542730  0.79965150  0.98254244    -0.20100
F3278       F  0.94138056  0.73741557  0.08410748    -0.20200
F3279       F  0.86595852  0.74816383  0.59971513    -0.20500
F3280       F  0.92206025  0.77742402  0.60815938    -0.23200
C3281       C  0.98539079  0.80487203  0.05377745    -0.06000
C3282       C  0.49734896  0.77771454  0.06150907    -0.00100
C3283       C  0.51596291  0.77351334  0.08937767    -0.08700
C3284       C  0.52297898  0.79636776  0.10684492    -0.06000
C3285       C  0.50179405  0.82124060  0.10114978    -0.00100
C3286       C  0.98107957  0.82490995  0.07541169    -0.08600
C3287       C  0.94563267  0.84693002  0.07177466     0.61800
H3288       H  0.97051820  0.80810060  0.03276359     0.12500
H3289       H  0.54089377  0.79378303  0.12676810     0.12500
C3290       C  0.52395528  0.74591565  0.10362171     0.62000
F3291       F  0.92714967  0.84622712  0.04446690    -0.23100
F3292       F  0.96314464  0.87259229  0.07567723    -0.20500
F3293       F  0.91172125  0.84281296  0.09191362    -0.20100
F3294       F  0.56755876  0.74412525  0.11273766    -0.20200
F3295       F  0.51470984  0.72403263  0.08574042    -0.20500
F3296       F  0.49655790  0.74382512  0.12794137    -0.23200
C3297       C  0.61196789  0.71234406  0.30642457    -0.06000
C3298       C  0.59549838  0.69521353  0.28442548    -0.00100
C3299       C  0.61034890  0.69945081  0.25551803    -0.08700
C3300       C  0.64712285  0.71670316  0.25076946    -0.06000
C3301       C  0.66466329  0.73347271  0.27273215    -0.00100
C3302       C  0.64472078  0.73242768  0.30083488    -0.08600
C3303       C  0.65759669  0.75097759  0.32577483     0.61800
H3304       H  0.59944383  0.70976616  0.32834310     0.12500
H3305       H  0.66340194  0.71660665  0.22970907     0.12500
C3306       C  0.58788807  0.68607723  0.22975545     0.62000
F3307       F  0.61996029  0.76453123  0.33603643    -0.23100
F3308       F  0.68865317  0.77050826  0.31771824    -0.20500
F3309       F  0.67477934  0.73533277  0.34808367    -0.20100
F3310       F  0.54381761  0.69450857  0.22892081    -0.20200
F3311       F  0.58948665  0.65789658  0.23201063    -0.20500
F3312       F  0.60800980  0.69335618  0.20365276    -0.23200
C3313       C  0.86007993  0.67712698  0.26699079    -0.06000
C3314       C  0.89373630  0.68636657  0.28515602    -0.00100
C3315       C  0.89574927  0.71426727  0.29307040    -0.08700
C3316       C  0.86285389  0.73212734  0.28273224    -0.06000
C3317       C  0.82775708  0.72269891  0.26554665    -0.00100
C3318       C  0.82687479  0.69467818  0.25686312    -0.08600
C3319       C  0.79203558  0.68161189  0.23753269     0.61800
H3320       H  0.85854337  0.65560545  0.26158399     0.12500
H3321       H  0.86283127  0.75316256  0.28983068     0.12500
C3322       C  0.93130295  0.72479557  0.31327892     0.62000
F3323       F  0.81297637  0.67076956  0.21313123    -0.23100
F3324       F  0.75968957  0.69964906  0.22834014    -0.20500
F3325       F  0.77129878  0.66043497  0.25241475    -0.20100
F3326       F  0.97312481  0.71723543  0.30295115    -0.20200
F3327       F  0.92429973  0.71372473  0.34058469    -0.20500
F3328       F  0.93023799  0.75311429  0.31577130    -0.23200
C3329       C  0.89750413  0.54637675  0.29631593    -0.06000
C3330       C  0.90489526  0.56864137  0.27768394    -0.00100
C3331       C  0.88130657  0.56948918  0.25126103    -0.08700
C3332       C  0.84648727  0.55046228  0.24664602    -0.06000
C3333       C  0.83757311  0.52844431  0.26570236    -0.00100
C3334       C  0.86603041  0.52562853  0.29022661    -0.08600
C3335       C  0.85658202  0.00430270  0.30973515     0.61800
H3336       H  0.91688593  0.54510586  0.31602278     0.12500
H3337       H  0.82438362  0.55360316  0.22863875     0.12500
C3338       C  0.89285112  0.59034450  0.22803410     0.62000
F3339       F  0.89686897  0.99055927  0.31182661    -0.23100
F3340       F  0.82467129  0.98551796  0.30252162    -0.20500
F3341       F  0.86040433  0.51046256  0.33879885    -0.20100
F3342       F  0.93621520  0.58597573  0.21850181    -0.20200
F3343       F  0.88928516  0.61652732  0.23909691    -0.20500
F3344       F  0.86504685  0.58836317  0.20433274    -0.23200
C3345       C  0.61074575  0.54899069  0.29871022    -0.06000
C3346       C  0.61021510  0.57302970  0.28211541    -0.00100
C3347       C  0.64003423  0.57514063  0.25807198    -0.08700
C3348       C  0.67162022  0.55403865  0.25318856    -0.06000
C3349       C  0.67359967  0.53036052  0.27058563    -0.00100
C3350       C  0.64130529  0.52753738  0.29342322    -0.08600
C3351       C  0.63604339  0.50304761  0.31311795     0.61800
H3352       H  0.58685401  0.54701087  0.31650085     0.12500
H3353       H  0.69621440  0.55620251  0.23592980     0.12500
C3354       C  0.63965349  0.59975626  0.23808698     0.62000
F3355       F  0.59544143  0.49067583  0.30796772    -0.23100
F3356       F  0.63675770  0.51160591  0.34178148    -0.20500
F3357       F  0.66894002  0.48397631  0.30905901    -0.20100
F3358       F  0.64605537  0.62330434  0.25409832    -0.20200
F3359       F  0.59919966  0.60114687  0.22406400    -0.20500
F3360       F  0.67305837  0.59837710  0.21708503    -0.23200
C3361       C  0.01113713  0.71830514  0.43963410    -0.06000
C3362       C  0.99945960  0.70309215  0.46469131    -0.00100
C3363       C  0.48695026  0.67456774  0.46039396    -0.08700
C3364       C  0.48832803  0.66302774  0.43231800    -0.06000
C3365       C  0.50006185  0.67793054  0.40739097    -0.00100
C3366       C  0.01447729  0.70622139  0.41155808    -0.08600
C3367       C  0.03252840  0.72287258  0.38636739     0.61800
H3368       H  0.01871124  0.73985294  0.44241890     0.12500
H3369       H  0.48261884  0.64135742  0.43022499     0.12500
C3370       C  0.47409135  0.65514421  0.48450419     0.62000
F3371       F  0.03941960  0.75003080  0.39392938    -0.23100
F3372       F  0.00315522  0.72225124  0.36357498    -0.20500
F3373       F  0.07288817  0.71184591  0.37743389    -0.20100
F3374       F  0.43094813  0.64656236  0.48027575    -0.20200
F3375       F  0.50182360  0.63240460  0.48373219    -0.20500
F3376       F  0.47653615  0.66686971  0.51149355    -0.23200
C3377       C  0.91280170  0.54544692  0.49335613    -0.06000
C3378       C  0.91705847  0.52219683  0.47526316    -0.00100
C3379       C  0.88357739  0.51759505  0.45417500    -0.08700
C3380       C  0.84990932  0.53766967  0.45040822    -0.06000
C3381       C  0.84773405  0.56150615  0.46757279    -0.00100
C3382       C  0.87758294  0.56443359  0.49075652    -0.08600
C3383       C  0.87207726  0.58764368  0.51252931     0.61800
H3384       H  0.93874666  0.54938490  0.50892121     0.12500
H3385       H  0.82589661  0.53516214  0.43318548     0.12500
C3386       C  0.89035839  0.99563599  0.42664669     0.62000
F3387       F  0.90480783  0.58707550  0.53346928    -0.23100
F3388       F  0.83102471  0.58534080  0.52631792    -0.20500
F3389       F  0.87403072  0.61266295  0.49863003    -0.20100
F3390       F  0.85043091  0.98150061  0.42644655    -0.20200
F3391       F  0.92387870  0.97716980  0.43240246    -0.20500
F3392       F  0.89791653  0.00671402  0.39938529    -0.23200
C3393       C  0.57510069  0.54607744  0.48594407    -0.06000
C3394       C  0.57689308  0.52129966  0.47030222    -0.00100
C3395       C  0.61303104  0.51716386  0.45033168    -0.08700
C3396       C  0.64509100  0.53796272  0.44682409    -0.06000
C3397       C  0.64187674  0.56305576  0.46149185    -0.00100
C3398       C  0.60645782  0.56716649  0.48166400    -0.08600
C3399       C  0.60468961  0.59388597  0.99909829     0.61800
H3400       H  0.55119508  0.54943515  0.00196715     0.12500
H3401       H  0.67253529  0.53490426  0.43154013     0.12500
C3402       C  0.62051016  0.49196928  0.43187300     0.62000
F3403       F  0.56808051  0.59328340  0.01769788    -0.23100
F3404       F  0.59903247  0.61515230  0.97964232    -0.20500
F3405       F  0.63587180  0.59952830  0.51471883    -0.20100
F3406       F  0.62780142  0.49960818  0.40327291    -0.20200
F3407       F  0.58497085  0.47444060  0.43255749    -0.20500
F3408       F  0.65795679  0.47834476  0.44158332    -0.23200
C3409       C  0.50715068  0.54180290  0.38705873    -0.06000
C3410       C  0.99664347  0.56948175  0.39388202    -0.00100
C3411       C  0.97952817  0.57620584  0.42157326    -0.08700
C3412       C  0.98840149  0.55825204  0.44443549    -0.06000
C3413       C  0.99837065  0.53061810  0.43903751    -0.00100
C3414       C  0.50397787  0.52149870  0.40878525    -0.08600
C3415       C  0.50316157  0.99202914  0.39862430     0.61800
H3416       H  0.51707406  0.53620775  0.36509296     0.12500
H3417       H  0.98186387  0.56492347  0.46646302     0.12500
C3418       C  0.93665702  0.59245147  0.42428922     0.62000
F3419       F  0.46724154  0.98796139  0.38061002    -0.23100
F3420       F  0.00865550  0.97356054  0.42079909    -0.20500
F3421       F  0.54141376  0.98637691  0.38267486    -0.20100
F3422       F  0.90244425  0.57570412  0.41532423    -0.20200
F3423       F  0.43317512  0.61507274  0.40583621    -0.20500
F3424       F  0.92899769  0.60049713  0.45263222    -0.23200
C3425       C  0.85277258  0.95361006  0.03787504    -0.06000
C3426       C  0.85139961  0.92790038  0.02412573    -0.00100
C3427       C  0.88159175  0.92270617  0.00081359    -0.08700
C3428       C  0.91332519  0.94283044  0.99340360    -0.06000
C3429       C  0.91709888  0.96764795  0.00875585    -0.00100
C3430       C  0.88530633  0.97346986  0.03112061    -0.08600
C3431       C  0.88628277  0.49931594  0.05064602     0.61800
H3432       H  0.82873031  0.95797273  0.05488577     0.12500
H3433       H  0.93685975  0.93887675  0.97590818     0.12500
C3434       C  0.88216069  0.89558464  0.98475176     0.62000
F3435       F  0.88762114  0.49381010  0.58019990    -0.23100
F3436       F  0.84857109  0.51533256  0.54564645    -0.20500
F3437       F  0.92301279  0.51550490  0.04587288    -0.20100
F3438       F  0.84255574  0.89231549  0.97010452    -0.20200
F3439       F  0.88749042  0.87454246  0.00442567    -0.20500
F3440       F  0.91679395  0.89388480  0.96463377    -0.23200
C3441       C  0.63737789  0.95054945  0.03963752    -0.06000
C3442       C  0.64748343  0.92783712  0.02179281    -0.00100
C3443       C  0.62664182  0.92598630  0.99431261    -0.08700
C3444       C  0.59240785  0.94465258  0.98789418    -0.06000
C3445       C  0.58154110  0.96706714  0.00577254    -0.00100
C3446       C  0.60618913  0.97086619  0.03159626    -0.08600
C3447       C  0.60175618  0.99572382  0.05124047     0.61800
H3448       H  0.65417483  0.95246751  0.06023208     0.12500
H3449       H  0.57707453  0.94525736  0.46893060     0.12500
C3450       C  0.65235140  0.91397053  0.47109202     0.62000
F3451       F  0.64218137  0.00929198  0.05172798    -0.23100
F3452       F  0.59117440  0.98740364  0.07919659    -0.20500
F3453       F  0.56964096  0.01405044  0.04219814    -0.20100
F3454       F  0.65301654  0.88694970  0.47982830    -0.20200
F3455       F  0.65196249  0.91885536  0.94611048    -0.20500
F3456       F  0.62856463  0.91548915  0.44554346    -0.23200
C3457       C  0.98644541  0.97226170  0.06676446    -0.06000
C3458       C  0.99931703  0.95927604  0.04061814    -0.00100
C3459       C  0.50310638  0.92940111  0.03964880    -0.08700
C3460       C  0.50823373  0.91665960  0.06674691    -0.06000
C3461       C  0.99915883  0.93060893  0.09442507    -0.00100
C3462       C  0.98369935  0.95798586  0.09335373    -0.08600
C3463       C  0.96435448  0.97198200  0.12001141     0.61800
H3464       H  0.97878236  0.99385208  0.06631781     0.12500
H3465       H  0.51699350  0.89512493  0.06729596     0.12500
C3466       C  0.50035930  0.91076993  0.01334056     0.62000
F3467       F  0.95744504  0.99976749  0.11559506    -0.23100
F3468       F  0.99279609  0.96900982  0.14326111    -0.20500
F3469       F  0.92372944  0.96006573  0.12650156    -0.20100
F3470       F  0.53802330  0.89455199  0.01172183    -0.20200
F3471       F  0.49653819  0.92471462  0.98744078    -0.20500
F3472       F  0.46357637  0.89393445  0.01649055    -0.23200
C3473       C  0.49784536  0.97715774  0.51285142     0.02100
C3474       C  0.95879134  0.98662892  0.50186285     0.02100
C3475       C  0.95610008  0.50321211  0.97773646     0.02100
C3476       C  0.99696637  0.51061104  0.96360057     0.02100
C3477       C  0.54123245  0.50294256  0.97681465     0.02100
C3478       C  0.53861837  0.98505577  0.49905661     0.02100
O3479       O  0.97201415  0.59672680  0.77550376    -0.82000
C3480       C  0.50574987  0.66330975  0.87980678     0.97300
O3481       O  0.96893741  0.65057654  0.87024910    -0.71100
O3482       O  0.93283413  0.66269859  0.82001445    -0.74700
Al3483     Al  0.95098502  0.62913692  0.83695429     1.49000
C3484       C  0.93001658  0.66678215  0.79312916     0.92600
O3485       O  0.53557277  0.66552281  0.77990683    -0.81000
O3486       O  0.57676070  0.59947402  0.81858165    -0.74500
Al3487     Al  0.00424567  0.63064302  0.77909622     1.90100
O3488       O  0.58305633  0.65655623  0.81450537    -0.73600
O3489       O  0.53450799  0.60451975  0.86834672    -0.73400
O3490       O  0.54027908  0.66103126  0.86417273    -0.79100
O3491       O  0.96305399  0.59569796  0.85612558    -0.77300
O3492       O  0.50318838  0.63072414  0.81992739    -1.13400
O3493       O  0.92108152  0.60678792  0.80839269    -0.72600
C3494       C  0.93468337  0.59189168  0.78747623     0.98100
C3495       C  0.57059160  0.67132243  0.79349561     0.94500
Al3496     Al  0.55432585  0.63035919  0.83943821     1.55600
O3497       O  0.95116131  0.65191642  0.77522940    -0.77300
C3498       C  0.99757073  0.58929067  0.86986050     0.98700
C3499       C  0.57961775  0.59571296  0.79155638     0.93500
O3500       O  0.55702730  0.61042247  0.77466918    -0.82600
C3501       C  0.00073271  0.71752993  0.99216713     0.02100
C3502       C  0.95998050  0.72732481  0.00460508     0.02100
C3503       C  0.95721152  0.74935516  0.52740123     0.02100
C3504       C  0.99934854  0.75811643  0.53869797     0.02100
C3505       C  0.54081733  0.74863859  0.52477662     0.02100
C3506       C  0.53835395  0.72470752  0.00740978     0.02100
O3507       O  0.53844400  0.84785825  0.71978591    -0.82000
C3508       C  0.00379224  0.91739195  0.62158055     0.97300
O3509       O  0.53705133  0.90145855  0.62644961    -0.71100
O3510       O  0.57421482  0.91396750  0.67656049    -0.74700
Al3511     Al  0.55585317  0.88041370  0.65907218     1.49000
C3512       C  0.57517599  0.91891026  0.70350001     0.92600
O3513       O  0.96560064  0.91293621  0.71942312    -0.81000
O3514       O  0.92982077  0.84890130  0.67572018    -0.74500
Al3515     Al  0.50295113  0.88015137  0.71735259     1.90100
O3516       O  0.92006048  0.90533993  0.68367434    -0.73600
O3517       O  0.97297836  0.85975844  0.62760989    -0.73400
O3518       O  0.96852552  0.91495790  0.63676462    -0.79100
O3519       O  0.54217658  0.84734777  0.63908316    -0.77300
O3520       O  0.00268476  0.88141061  0.67805548    -1.13400
O3521       O  0.58829506  0.85876174  0.68671962    -0.72600
C3522       C  0.57608259  0.84424671  0.70803663     0.98100
C3523       C  0.93133573  0.91907608  0.70550023     0.94500
Al3524     Al  0.95216874  0.88216927  0.65788713     1.55600
O3525       O  0.55308491  0.90417398  0.72105275    -0.77300
C3526       C  0.50718509  0.84368772  0.62443916     0.98700
C3527       C  0.92834148  0.84231127  0.70230149     0.93500
O3528       O  0.95019230  0.85640052  0.72023269    -0.82600
C3529       C  0.75379501  0.52019644  0.77291292     0.02100
C3530       C  0.71198776  0.51235556  0.76086084     0.02100
C3531       C  0.71206378  0.99547862  0.73647395     0.02100
C3532       C  0.75265674  0.98661372  0.72311590     0.02100
C3533       C  0.79422303  0.99629229  0.73384033     0.02100
C3534       C  0.79509154  0.51283888  0.75913844     0.02100
O3535       O  0.69569789  0.84718365  0.52526051    -0.82000
C3536       C  0.74184159  0.91456996  0.62159973     0.97300
O3537       O  0.70727975  0.90971767  0.60722700    -0.71100
O3538       O  0.66564826  0.89951987  0.55847650    -0.74700
Al3539     Al  0.69412552  0.87646580  0.58656638     1.49000
C3540       C  0.67802805  0.91087165  0.53500415     0.92600
O3541       O  0.79999041  0.89349009  0.52174328    -0.81000
O3542       O  0.83017228  0.85086097  0.56178860    -0.74500
Al3543     Al  0.74768204  0.87065420  0.52811891     1.90100
O3544       O  0.81739266  0.90759011  0.56517070    -0.73600
O3545       O  0.78441520  0.84621968  0.60975262    -0.73400
O3546       O  0.77751402  0.90178744  0.61581339    -0.79100
O3547       O  0.71324535  0.85422517  0.61843442    -0.77300
O3548       O  0.74627670  0.87462090  0.56704688    -1.13400
O3549       O  0.67186879  0.84332971  0.57010114    -0.72600
C3550       C  0.67112828  0.83557142  0.54403338     0.98100
C3551       C  0.82121201  0.90973104  0.53801467     0.94500
Al3552     Al  0.79772743  0.87656310  0.58621301     1.55600
O3553       O  0.71315427  0.90312069  0.52191700    -0.77300
C3554       C  0.74935907  0.84208868  0.62430241     0.98700
C3555       C  0.81827252  0.83350363  0.54293693     0.93500
O3556       O  0.78234013  0.83725730  0.52946483    -0.82600
C3557       C  0.75293225  0.73525913  0.77312710     0.02100
C3558       C  0.79313486  0.74143483  0.75758875     0.02100
C3559       C  0.79369562  0.76115075  0.73486656     0.02100
C3560       C  0.75226358  0.77187740  0.72517791     0.02100
C3561       C  0.71221323  0.76638946  0.74089528     0.02100
C3562       C  0.71169141  0.74639294  0.76332136     0.02100
O3563       O  0.78123761  0.58783804  0.96787197    -0.82000
C3564       C  0.74968219  0.66212198  0.87378494     0.97300
O3565       O  0.78534392  0.64969209  0.87990629    -0.71100
O3566       O  0.81992906  0.65721962  0.93092338    -0.74700
Al3567     Al  0.80340771  0.62552355  0.91060800     1.49000
C3568       C  0.82160705  0.66000261  0.95794902     0.92600
O3569       O  0.71625699  0.65438479  0.97156571    -0.81000
O3570       O  0.67866291  0.59165954  0.92553124    -0.74500
Al3571     Al  0.74879995  0.62149817  0.96765937     1.90100
O3572       O  0.66867368  0.64770709  0.93621416    -0.73600
O3573       O  0.72236623  0.60261191  0.87782120    -0.73400
O3574       O  0.71447836  0.65756551  0.88816555    -0.79100
O3575       O  0.79282113  0.59448565  0.88765838    -0.77300
O3576       O  0.75063039  0.62394025  0.92880515    -1.13400
O3577       O  0.83312069  0.60089323  0.93699163    -0.72600
C3578       C  0.81872619  0.58412637  0.95588240     0.98100
C3579       C  0.68065157  0.66038211  0.95883549     0.94500
Al3580     Al  0.70023604  0.62479111  0.90875905     1.55600
O3581       O  0.80100552  0.64331001  0.97425821    -0.77300
C3582       C  0.75883890  0.59050586  0.87257618     0.98700
C3583       C  0.67451727  0.58611034  0.95210689     0.93500
O3584       O  0.69592342  0.59955390  0.97065297    -0.82600
C3585       C  0.77479065  0.70495257  0.84924098    -0.06000
C3586       C  0.74917279  0.68102865  0.84842803    -0.00100
C3587       C  0.72523267  0.67493276  0.82287574    -0.08700
C3588       C  0.73146109  0.69160145  0.79816431    -0.06000
C3589       C  0.75419955  0.71672445  0.79944962    -0.00100
C3590       C  0.77510142  0.72395152  0.82613434    -0.08600
C3591       C  0.79532475  0.75173657  0.83286113     0.61800
H3592       H  0.79243757  0.70979102  0.86895006     0.12500
H3593       H  0.71595742  0.68598831  0.77793741     0.12500
C3594       C  0.69096031  0.65213550  0.82206689     0.62000
F3595       F  0.77340935  0.76295521  0.85672265    -0.23100
F3596       F  0.79205812  0.77026504  0.81039724    -0.20500
F3597       F  0.83979729  0.74842694  0.83972433    -0.20100
F3598       F  0.65901254  0.65693945  0.84332491    -0.20200
F3599       F  0.71002888  0.62688399  0.82678161    -0.20500
F3600       F  0.67008992  0.65097797  0.79556308    -0.23200
C3601       C  0.77199407  0.81476163  0.69913889    -0.06000
C3602       C  0.75029452  0.78935012  0.69857928    -0.00100
C3603       C  0.72855906  0.78105762  0.67260945    -0.08700
C3604       C  0.72656480  0.79965053  0.64936998    -0.06000
C3605       C  0.75119274  0.82392012  0.64959344    -0.00100
C3606       C  0.77698070  0.83062105  0.67404506    -0.08600
C3607       C  0.81287653  0.85243781  0.67288362     0.61800
H3608       H  0.78813348  0.82110196  0.71883643     0.12500
H3609       H  0.70828175  0.79425695  0.62999390     0.12500
C3610       C  0.70953643  0.75273147  0.66699596     0.62000
F3611       F  0.83126417  0.85715207  0.69978888    -0.23100
F3612       F  0.79621047  0.87689326  0.66337130    -0.20500
F3613       F  0.84616528  0.84404367  0.65381408    -0.20100
F3614       F  0.66440179  0.75488814  0.66156016    -0.20200
F3615       F  0.71559168  0.73470729  0.68963344    -0.20500
F3616       F  0.73041956  0.74159326  0.64269743    -0.23200
C3617       C  0.73980138  0.92244324  0.67505497    -0.06000
C3618       C  0.74057137  0.93377123  0.64700939    -0.00100
C3619       C  0.74375992  0.96253945  0.64419929    -0.08700
C3620       C  0.74745367  0.97881263  0.66953234    -0.06000
C3621       C  0.75078472  0.96726729  0.69747059    -0.00100
C3622       C  0.74750923  0.93827959  0.70015687    -0.08600
C3623       C  0.75303573  0.92260865  0.72837911     0.61800
H3624       H  0.73359517  0.90071446  0.67749801     0.12500
H3625       H  0.74785812  0.00090648  0.66760545     0.12500
C3626       C  0.74246465  0.97588372  0.61456951     0.62000
F3627       F  0.78915255  0.90503035  0.72557549    -0.23100
F3628       F  0.71683987  0.40459178  0.73300812    -0.20500
F3629       F  0.76031004  0.93933030  0.75205014    -0.20100
F3630       F  0.70189593  0.97051390  0.60194400    -0.20200
F3631       F  0.77625626  0.96536369  0.59714991    -0.20500
F3632       F  0.74772430  0.00406245  0.61617407    -0.23200
C3633       C  0.77046094  0.56436863  0.79644701    -0.06000
C3634       C  0.75442833  0.53747867  0.79946971    -0.00100
C3635       C  0.74398313  0.52729800  0.82782397    -0.08700
C3636       C  0.74376185  0.54578069  0.85108141    -0.06000
C3637       C  0.76135720  0.57200155  0.84784536    -0.00100
C3638       C  0.77919620  0.58047902  0.82085346    -0.08600
C3639       C  0.81170305  0.60418964  0.81853586     0.61800
H3640       H  0.77973867  0.57172343  0.77503347     0.12500
H3641       H  0.73271302  0.53909364  0.87246748     0.12500
C3642       C  0.73699380  0.49739846  0.83591769     0.62000
F3643       F  0.82885123  0.60696265  0.79065483    -0.23100
F3644       F  0.84648190  0.59930205  0.83723874    -0.20500
F3645       F  0.79206362  0.62867444  0.82606658    -0.20100
F3646       F  0.77117484  0.98904181  0.85449798    -0.20200
F3647       F  0.74012461  0.47978918  0.81244779    -0.20500
F3648       F  0.69597532  0.49434099  0.84941918    -0.23200
C3649       C  0.64441741  0.83203806  0.73455946    -0.06000
C3650       C  0.60692100  0.82324857  0.71946537    -0.00100
C3651       C  0.60096755  0.79494931  0.71436339    -0.08700
C3652       C  0.63572925  0.77672839  0.72148127    -0.06000
C3653       C  0.67343655  0.78545782  0.73687144    -0.00100
C3654       C  0.67610131  0.81351277  0.74523496    -0.08600
C3655       C  0.71068622  0.82528519  0.76565170     0.61800
H3656       H  0.64905663  0.85364341  0.73835910     0.12500
H3657       H  0.63366271  0.75580686  0.71432217     0.12500
C3658       C  0.55808881  0.78422524  0.70156192     0.62000
F3659       F  0.73406273  0.84599850  0.75180080    -0.23100
F3660       F  0.74081136  0.80611916  0.77560064    -0.20500
F3661       F  0.68888887  0.83638380  0.78961118    -0.20100
F3662       F  0.54909309  0.79768622  0.67599437    -0.18600
F3663       F  0.52331942  0.78886430  0.72099746    -0.20500
F3664       F  0.56032581  0.75635095  0.69581012    -0.23200
C3665       C  0.88766313  0.79792175  0.69207526    -0.06000
C3666       C  0.90004141  0.81816345  0.71245969    -0.00100
C3667       C  0.88271580  0.81550274  0.74138089    -0.08700
C3668       C  0.85165381  0.79462513  0.74779214    -0.06000
C3669       C  0.83662472  0.77590973  0.72697836    -0.00100
C3670       C  0.85654202  0.77686379  0.69877382    -0.08600
C3671       C  0.84529734  0.75692648  0.67473637     0.61800
H3672       H  0.90136317  0.79900887  0.67019827     0.12500
H3673       H  0.83524296  0.79437846  0.76883058     0.12500
C3674       C  0.89245555  0.83618253  0.76502327     0.62000
F3675       F  0.82702703  0.77115756  0.65176170    -0.23100
F3676       F  0.81560109  0.73693557  0.68362014    -0.20500
F3677       F  0.88395128  0.74402125  0.66518384    -0.20100
F3678       F  0.87727555  0.86146769  0.75606542    -0.20200
F3679       F  0.93769653  0.83697682  0.77044412    -0.20500
F3680       F  0.87105704  0.83007051  0.79104979    -0.23200
C3681       C  0.88761892  0.95994045  0.69241416    -0.06000
C3682       C  0.90340955  0.94252858  0.71429455    -0.00100
C3683       C  0.88906694  0.94666608  0.74323175    -0.08700
C3684       C  0.85245965  0.96389564  0.74796212    -0.06000
C3685       C  0.83566622  0.98102736  0.72618287    -0.00100
C3686       C  0.85657711  0.98082893  0.69843030    -0.08600
C3687       C  0.84962088  0.00230741  0.67514289     0.61800
H3688       H  0.90000699  0.95735031  0.67045393     0.12500
H3689       H  0.83572112  0.96329948  0.76865155     0.12500
C3690       C  0.91203394  0.93360437  0.76898468     0.62000
F3691       F  0.83718907  0.98982059  0.64951037    -0.23100
F3692       F  0.88948528  0.01584566  0.67021578    -0.20500
F3693       F  0.81784788  0.02162637  0.68282860    -0.20100
F3694       F  0.95533564  0.94314442  0.77032633    -0.20200
F3695       F  0.91290672  0.90553179  0.76630771    -0.20500
F3696       F  0.89074594  0.93994760  0.79501863    -0.23200
C3697       C  0.61333032  0.96407439  0.69645681    -0.06000
C3698       C  0.60410435  0.94140464  0.71456279    -0.00100
C3699       C  0.62527956  0.93998703  0.74191400    -0.08700
C3700       C  0.66072434  0.95780710  0.74718870    -0.06000
C3701       C  0.67035138  0.98030825  0.72941416    -0.00100
C3702       C  0.64471600  0.98433133  0.70406963    -0.08600
C3703       C  0.64886383  0.00917597  0.68444077     0.61800
H3704       H  0.59576969  0.96606384  0.67614151     0.12500
H3705       H  0.68268934  0.95343417  0.76498766     0.12500
C3706       C  0.61146336  0.92005700  0.76571292     0.62000
F3707       F  0.65744010  0.00077131  0.65620178    -0.23100
F3708       F  0.68226863  0.02687236  0.69271614    -0.20500
F3709       F  0.60854368  0.52203158  0.68529622    -0.20100
F3710       F  0.61727484  0.89344014  0.75642877    -0.20200
F3711       F  0.56714214  0.92441511  0.77311358    -0.20500
F3712       F  0.63619672  0.92343275  0.79067055    -0.23200
C3713       C  0.60511048  0.72127681  0.97517813    -0.06000
C3714       C  0.58048656  0.71060314  0.99877906    -0.00100
C3715       C  0.59326051  0.68490769  0.01096589    -0.08700
C3716       C  0.62901441  0.67069118  0.99834688    -0.06000
C3717       C  0.64985925  0.67979614  0.97296523    -0.00100
C3718       C  0.63945146  0.70590315  0.96164001    -0.08600
C3719       C  0.66504500  0.71736444  0.93583668     0.61800
H3720       H  0.59554972  0.74105055  0.96647073     0.12500
H3721       H  0.63943165  0.65134404  0.00769559     0.12500
C3722       C  0.57102451  0.67081926  0.03678273     0.62000
F3723       F  0.65159813  0.74382678  0.92926128    -0.23100
F3724       F  0.65838886  0.70105199  0.91170911    -0.20500
F3725       F  0.71008027  0.71786573  0.94202386    -0.20100
F3726       F  0.53516392  0.68518764  0.04811003    -0.20200
F3727       F  0.60194633  0.66702020  0.05850186    -0.20500
F3728       F  0.55629587  0.64527392  0.02857706    -0.23200
C3729       C  0.90301248  0.71929984  0.96725285    -0.06000
C3730       C  0.91772394  0.71414575  0.99550183    -0.00100
C3731       C  0.89494401  0.69444016  0.01286302    -0.08700
C3732       C  0.86056232  0.67926294  0.00031037    -0.06000
C3733       C  0.85022989  0.68165050  0.97077248    -0.00100
C3734       C  0.86960328  0.70344271  0.95439792    -0.08600
C3735       C  0.85562620  0.71034042  0.92364421     0.61800
H3736       H  0.92003795  0.73488150  0.95460885     0.12500
H3737       H  0.84021500  0.66510799  0.51513592     0.12500
C3738       C  0.90376654  0.68763973  0.54530881     0.62000
F3739       F  0.87206701  0.73552497  0.91469658    -0.23100
F3740       F  0.80959322  0.71166999  0.92243756    -0.20500
F3741       F  0.87166467  0.69066839  0.90445648    -0.20100
F3742       F  0.87166458  0.69807379  0.56413443    -0.20200
F3743       F  0.94504228  0.69697964  0.55343896    -0.20500
F3744       F  0.90453605  0.65933438  0.54811784    -0.23200
C3745       C  0.57458758  0.79356542  0.51279925    -0.06000
C3746       C  0.58124250  0.76769260  0.52555667    -0.00100
C3747       C  0.62161683  0.76371459  0.54136089    -0.08700
C3748       C  0.65038415  0.78629463  0.54588445    -0.06000
C3749       C  0.64065781  0.81267676  0.53570119    -0.00100
C3750       C  0.60197601  0.81628027  0.51869104    -0.08600
C3751       C  0.58615015  0.84374887  0.50770642     0.61800
H3752       H  0.54486697  0.79670699  0.49998691     0.12500
H3753       H  0.68108353  0.78348718  0.55773041     0.12500
C3754       C  0.63790301  0.73610180  0.55162340     0.62000
F3755       F  0.54083935  0.84652709  0.51313317    -0.23100
F3756       F  0.59370004  0.84515583  0.47805309    -0.20500
F3757       F  0.60719344  0.86528119  0.52121760    -0.20100
F3758       F  0.66048144  0.72086075  0.04420141    -0.20200
F3759       F  0.60295541  0.72012317  0.56037855    -0.20500
F3760       F  0.66616365  0.73863804  0.57505006    -0.23200
C3761       C  0.89562797  0.77916287  0.50791808    -0.06000
C3762       C  0.91455650  0.76639503  0.53247632    -0.00100
C3763       C  0.89525618  0.77327881  0.56017326    -0.08700
C3764       C  0.86372640  0.79485777  0.56224344    -0.06000
C3765       C  0.84709879  0.80849483  0.53781563    -0.00100
C3766       C  0.86054223  0.79874542  0.51000745    -0.08600
C3767       C  0.83784266  0.80860406  0.48266865     0.61800
H3768       H  0.90957487  0.77432009  0.48677014     0.12500
H3769       H  0.85146878  0.80105858  0.58355458     0.12500
C3770       C  0.91002766  0.75776428  0.08760983     0.62000
F3771       F  0.85657395  0.79698592  0.45788413    -0.23100
F3772       F  0.84105771  0.83671705  0.48025386    -0.20500
F3773       F  0.79329827  0.80136384  0.48383108    -0.20100
F3774       F  0.93484052  0.73766299  0.58501976    -0.20200
F3775       F  0.87209359  0.74611007  0.09965320    -0.20500
F3776       F  0.92617049  0.77700206  0.10690602    -0.23200
C3777       C  0.98441655  0.80606585  0.55368146    -0.06000
C3778       C  0.50288608  0.78010509  0.56028232    -0.00100
C3779       C  0.52427507  0.77615970  0.58740575    -0.08700
C3780       C  0.53010096  0.79882152  0.60545303    -0.06000
C3781       C  0.50600066  0.82296585  0.60121300    -0.00100
C3782       C  0.97991248  0.82664122  0.57478239    -0.08600
C3783       C  0.94356923  0.84808706  0.57083182     0.61800
H3784       H  0.97050285  0.80900612  0.53231643     0.12500
H3785       H  0.54958191  0.79642055  0.62484550     0.12500
C3786       C  0.53721822  0.74879328  0.60042635     0.62000
F3787       F  0.92498120  0.84679826  0.54350244    -0.23100
F3788       F  0.95956045  0.87410400  0.57441937    -0.20500
F3789       F  0.91015137  0.84365820  0.59122617    -0.20100
F3790       F  0.58239808  0.74850823  0.60602357    -0.20200
F3791       F  0.52658542  0.72688667  0.58302552    -0.20500
F3792       F  0.51452974  0.74542364  0.62655262    -0.23200
C3793       C  0.61769448  0.71151277  0.80642489    -0.06000
C3794       C  0.59886361  0.69506233  0.78465391    -0.00100
C3795       C  0.61119967  0.70002832  0.75538773    -0.08700
C3796       C  0.64868722  0.71650987  0.74978702    -0.06000
C3797       C  0.66842457  0.73269129  0.77142167    -0.00100
C3798       C  0.65005305  0.73165729  0.79998532    -0.08600
C3799       C  0.66335662  0.75079150  0.82429852     0.61800
H3800       H  0.60678981  0.70871114  0.82871090     0.12500
H3801       H  0.66342161  0.71643502  0.72824661     0.12500
C3802       C  0.58490659  0.68860842  0.73016344     0.62000
F3803       F  0.62575158  0.76432266  0.83464459    -0.23100
F3804       F  0.69377953  0.77035247  0.81535979    -0.20500
F3805       F  0.68139066  0.73579763  0.84679188    -0.20100
F3806       F  0.54119531  0.69766549  0.73238654    -0.20200
F3807       F  0.58565655  0.66031240  0.73035585    -0.20500
F3808       F  0.60183113  0.69739254  0.70364725    -0.23200
C3809       C  0.86627284  0.67830413  0.76303346    -0.06000
C3810       C  0.89890503  0.68746094  0.78207034    -0.00100
C3811       C  0.90095031  0.71551641  0.78966076    -0.08700
C3812       C  0.86752513  0.73324304  0.77948208    -0.06000
C3813       C  0.83263573  0.72359527  0.76218404    -0.00100
C3814       C  0.83315136  0.69583994  0.75266944    -0.08600
C3815       C  0.79989567  0.68315484  0.73198726     0.61800
H3816       H  0.86575979  0.65684905  0.75685143     0.12500
H3817       H  0.86722562  0.75438483  0.78640898     0.12500
C3818       C  0.93792488  0.72652152  0.80852838     0.62000
F3819       F  0.82271272  0.67298933  0.70795549    -0.23100
F3820       F  0.76809263  0.70134163  0.72228019    -0.20500
F3821       F  0.77833956  0.66161272  0.74569798    -0.20100
F3822       F  0.97898127  0.71892903  0.79695091    -0.20200
F3823       F  0.93342475  0.71597724  0.83625279    -0.20500
F3824       F  0.93675900  0.75488950  0.81041697    -0.23200
C3825       C  0.89341249  0.54884418  0.79828918    -0.06000
C3826       C  0.90581637  0.56862705  0.77771833    -0.00100
C3827       C  0.88681474  0.56718473  0.74977310    -0.08700
C3828       C  0.85240842  0.54792848  0.74458697    -0.06000
C3829       C  0.83798159  0.52871363  0.76563604    -0.00100
C3830       C  0.86136993  0.52838693  0.79256479    -0.08600
C3831       C  0.85611137  0.00844470  0.81483914     0.61800
H3832       H  0.90902404  0.54945043  0.81942617     0.12500
H3833       H  0.83480609  0.54881618  0.72434556     0.12500
C3834       C  0.90204925  0.58641208  0.72580500     0.62000
F3835       F  0.89617578  0.99489457  0.81890419    -0.23100
F3836       F  0.82454197  0.98929980  0.80828447    -0.20500
F3837       F  0.84288677  0.52022941  0.84184784    -0.20100
F3838       F  0.94666920  0.58165920  0.71959672    -0.20200
F3839       F  0.89649082  0.61335506  0.73452569    -0.20500
F3840       F  0.87830258  0.58256821  0.70053377    -0.23200
C3841       C  0.60827015  0.54825817  0.79508584    -0.06000
C3842       C  0.60916251  0.57326627  0.78023213    -0.00100
C3843       C  0.63850772  0.57595084  0.75604500    -0.08700
C3844       C  0.67093865  0.55535692  0.75095854    -0.06000
C3845       C  0.67193942  0.53068676  0.76685105    -0.00100
C3846       C  0.63754983  0.52646485  0.78819011    -0.08600
C3847       C  0.62620915  0.49942711  0.80240353     0.61800
H3848       H  0.58325049  0.54551962  0.81206602     0.12500
H3849       H  0.69639741  0.55850922  0.73442159     0.12500
C3850       C  0.63568740  0.60016509  0.73558640     0.62000
F3851       F  0.58950130  0.48837429  0.78883248    -0.23100
F3852       F  0.61559041  0.50330315  0.83148953    -0.20500
F3853       F  0.66043714  0.48099582  0.80073010    -0.20100
F3854       F  0.64249292  0.62418016  0.75070645    -0.20200
F3855       F  0.59403179  0.60073597  0.72299906    -0.20500
F3856       F  0.66723357  0.59862527  0.71341696    -0.23200
C3857       C  0.00863861  0.71816153  0.93782062    -0.06000
C3858       C  0.00139538  0.70240178  0.96318404    -0.00100
C3859       C  0.49358672  0.67257964  0.96147438    -0.08700
C3860       C  0.49895488  0.66143703  0.93345034    -0.06000
C3861       C  0.50727697  0.67748693  0.90878029    -0.00100
C3862       C  0.01004314  0.70647036  0.90956852    -0.08600
C3863       C  0.01666539  0.72598428  0.88428194     0.61800
H3864       H  0.01273098  0.74016226  0.94011844     0.12500
H3865       H  0.49815097  0.63946882  0.93103414     0.12500
C3866       C  0.47881724  0.65271038  0.98480743     0.62000
F3867       F  0.98176381  0.74463190  0.88399345    -0.23100
F3868       F  0.01849872  0.71291686  0.85766845    -0.20500
F3869       F  0.05615057  0.74012807  0.88779055    -0.20100
F3870       F  0.43588216  0.64432238  0.97911392    -0.20200
F3871       F  0.50630615  0.62985663  0.98459974    -0.20500
F3872       F  0.47932094  0.66401242  0.01205967    -0.23200
C3873       C  0.90919278  0.54297011  0.99229290    -0.06000
C3874       C  0.91480656  0.52044581  0.97337523    -0.00100
C3875       C  0.88353838  0.51704926  0.95065135    -0.08700
C3876       C  0.85119940  0.53777004  0.94613160    -0.06000
C3877       C  0.84731856  0.56066435  0.96456306    -0.00100
C3878       C  0.87443771  0.56216982  0.98928633    -0.08600
C3879       C  0.86705706  0.58430367  0.01206471     0.61800
H3880       H  0.93410768  0.54646794  0.00862644     0.12500
H3881       H  0.82912478  0.53627421  0.92771037     0.12500
C3882       C  0.88092941  0.99159904  0.93279682     0.62000
F3883       F  0.89658323  0.58182926  0.03480330    -0.23100
F3884       F  0.82421816  0.58214280  0.02331805    -0.20500
F3885       F  0.87236819  0.60997393  0.99985632    -0.20100
F3886       F  0.84123059  0.97792920  0.93784403    -0.20200
F3887       F  0.91539469  0.97339837  0.93719089    -0.20500
F3888       F  0.88236960  0.00001689  0.90412133    -0.23200
C3889       C  0.57891724  0.54621964  0.98700650    -0.06000
C3890       C  0.58104693  0.52121668  0.97186815    -0.00100
C3891       C  0.61779880  0.51672220  0.95233368    -0.08700
C3892       C  0.64830564  0.53822663  0.94741420    -0.06000
C3893       C  0.64412890  0.56365345  0.96134213    -0.00100
C3894       C  0.60998428  0.56732715  0.98245506    -0.08600
C3895       C  0.59982103  0.59427466  0.49716553     0.61800
H3896       H  0.54727603  0.54923817  0.50083356     0.12500
H3897       H  0.67584234  0.53524498  0.93219778     0.12500
C3898       C  0.62865511  0.49007739  0.93697435     0.62000
F3899       F  0.56184574  0.59423655  0.51457968    -0.23100
F3900       F  0.59546814  0.61490509  0.47678838    -0.20500
F3901       F  0.64204781  0.59844865  0.01571178    -0.20100
F3902       F  0.64079459  0.49508930  0.90835369    -0.20200
F3903       F  0.59344835  0.47232330  0.93689512    -0.20500
F3904       F  0.66426916  0.47769681  0.95060863    -0.23200
C3905       C  0.51521156  0.54431561  0.88985955    -0.06000
C3906       C  0.99450916  0.56815362  0.89257841    -0.00100
C3907       C  0.97703235  0.57481934  0.92018311    -0.08700
C3908       C  0.98551794  0.55697152  0.94321489    -0.06000
C3909       C  0.99644616  0.52943949  0.93796361    -0.00100
C3910       C  0.51236780  0.52369847  0.91117263    -0.08600
C3911       C  0.51415199  0.99259216  0.89745750     0.61800
H3912       H  0.52828365  0.53946954  0.86836870     0.12500
H3913       H  0.97827144  0.56355759  0.96519742     0.12500
C3914       C  0.93627706  0.59297136  0.92280720     0.62000
F3915       F  0.48139832  0.98783871  0.87718473    -0.23100
F3916       F  0.99888641  0.97269363  0.92080091    -0.20500
F3917       F  0.55496626  0.98888846  0.88378453    -0.20100
F3918       F  0.90140548  0.57918675  0.91007462    -0.20200
F3919       F  0.43974397  0.61879768  0.91092957    -0.20500
F3920       F  0.92570278  0.59843790  0.95147371    -0.23200
C3921       C  0.85889045  0.95497352  0.54281957    -0.06000
C3922       C  0.85166935  0.93134933  0.52588106    -0.00100
C3923       C  0.87614112  0.92838589  0.49945912    -0.08700
C3924       C  0.90806467  0.94834797  0.49197659    -0.06000
C3925       C  0.91752696  0.97084261  0.50991066    -0.00100
C3926       C  0.89119219  0.97480731  0.53546087    -0.08600
C3927       C  0.88727558  0.50079577  0.55109736     0.61800
H3928       H  0.83973992  0.95771613  0.56268730     0.12500
H3929       H  0.92825665  0.94554488  0.47260978     0.12500
C3930       C  0.87165597  0.90331294  0.48023843     0.62000
F3931       F  0.88583903  0.49200183  0.07968485    -0.23100
F3932       F  0.84840036  0.51460336  0.04502901    -0.20500
F3933       F  0.92311655  0.51760841  0.54578204    -0.20100
F3934       F  0.82883753  0.90182260  0.46954299    -0.20200
F3935       F  0.88119075  0.88018962  0.49635409    -0.20500
F3936       F  0.90082414  0.90383743  0.45667611    -0.23200
C3937       C  0.63620571  0.95463245  0.54162804    -0.06000
C3938       C  0.64985228  0.93326293  0.52299020    -0.00100
C3939       C  0.63246585  0.93236935  0.49460829    -0.08700
C3940       C  0.59593800  0.94944618  0.48815509    -0.06000
C3941       C  0.58123737  0.97054141  0.50688607    -0.00100
C3942       C  0.60428921  0.97438541  0.53335835    -0.08600
C3943       C  0.59773022  0.99882647  0.55335300     0.61800
H3944       H  0.65091363  0.95600399  0.56290867     0.12500
H3945       H  0.57241079  0.94081454  0.96894656     0.12500
C3946       C  0.63755501  0.90510472  0.97073246     0.62000
F3947       F  0.63730641  0.01326102  0.55461624    -0.23100
F3948       F  0.58687442  0.98988455  0.58103958    -0.20500
F3949       F  0.56488458  0.01657775  0.54413748    -0.20100
F3950       F  0.67034451  0.88671027  0.97813405    -0.20200
F3951       F  0.69559607  0.92222206  0.46519047    -0.20500
F3952       F  0.59955014  0.89058974  0.96387506    -0.23200
C3953       C  0.99861671  0.97616352  0.56678720    -0.06000
C3954       C  0.00140612  0.96150852  0.54044816    -0.00100
C3955       C  0.50576721  0.93182973  0.54040162    -0.08700
C3956       C  0.51124799  0.91865652  0.56728440    -0.06000
C3957       C  0.00465468  0.93411458  0.59463162    -0.00100
C3958       C  0.99832677  0.96281999  0.59396393    -0.08600
C3959       C  0.99376385  0.97932024  0.62171334     0.61800
H3960       H  0.99688316  0.99828586  0.56594578     0.12500
H3961       H  0.52131378  0.89730750  0.56740052     0.12500
C3962       C  0.50697138  0.91394035  0.51344499     0.62000
F3963       F  0.99074338  0.00722219  0.61634666    -0.23100
F3964       F  0.03038620  0.97471243  0.63901732    -0.20500
F3965       F  0.95568887  0.97144828  0.63646932    -0.20100
F3966       F  0.54789891  0.90128792  0.51139515    -0.20200
F3967       F  0.50027018  0.92812031  0.48797015    -0.20500
F3968       F  0.47428615  0.89408131  0.51582017    -0.23200
loop_ 
_geom_bond_atom_site_label_1 
_geom_bond_atom_site_label_2 
_geom_bond_distance 
_geom_bond_site_symmetry_2 
_ccdc_geom_bond_type 
C1            C6   1.424   1_654  A
C1         C1986   1.422       .  A
C1         C2466   1.496       .  S
C2         C1985   1.421       .  A
C2         C1491   1.418   1_554  A
C2          C453   1.497       .  S
C3            C4   1.430       .  A
C3         C1490   1.419   1_545  A
C3          C402   1.511       .  S
C4         C1989   1.427       .  A
C4          C437   1.495       .  S
C5         C1988   1.428   1_455  A
C5         C1494   1.421   1_545  A
C5          C418   1.504       .  S
C6         C1493   1.424       .  A
C6          C469   1.507   1_556  S
O7           C22   1.265       .  A
O7          Al15   1.928       .  S
C8          C389   1.513       .  S
C8           O18   1.257       .  A
C8         O1993   1.266   1_455  A
O9         C1992   1.264       .  A
O9          Al11   1.942       .  S
O10          C12   1.254       .  A
O10         Al11   1.877       .  S
Al11         O19   1.885       .  S
Al11         O21   1.941       .  S
Al11       O2004   1.779       .  S
C12         C338   1.466       .  S
C12          O25   1.262       .  A
O13          C23   1.261       .  A
O13       Al1999   1.907       .  S
O14          C27   1.259       .  A
O14         Al24   1.893       .  S
Al15         O25   1.915       .  S
Al15       O1997   1.907       .  S
Al15       O2012   1.929       .  S
Al15       O2004   1.805       .  S
O16          C23   1.265       .  A
O16         Al24   1.915       .  S
O17        C2010   1.268   1_455  A
O17         Al24   1.935       .  S
O18         Al24   1.921       .  S
O19          C26   1.256       .  A
O20         Al24   1.786       .  S
O20       Al1995   1.779   1_455  S
O20       Al1999   1.806       .  S
O21          C22   1.267       .  A
C22         C354   1.504       .  S
C23         C322   1.490       .  S
C26         C434   1.471       .  S
C26        O2001   1.266       .  A
C27         C370   1.490       .  S
C27          O28   1.259       .  A
O28       Al1999   1.928       .  S
C29          C30   1.427       .  A
C29        C2018   1.420       .  A
C29         C386   1.524       .  S
C30         C527   1.429       .  A
C30         C258   1.490       .  S
C31          C32   1.438       .  A
C31         C526   1.430       .  A
C31         C290   1.537       .  S
C32        C2017   1.429       .  A
C32        C2290   1.486       .  S
C33        C2016   1.429   1_455  A
C33         C530   1.418       .  A
C33         C274   1.526       .  S
C34        C2013   1.423   1_455  A
C34         C529   1.421       .  A
C34         C242   1.480       .  S
O35          C50   1.255       .  A
O35         Al43   1.890       .  S
C36         C485   1.489       .  S
C36          O46   1.268       .  A
C36        O2021   1.258       .  A
O37        C2020   1.257   1_455  A
O37         Al39   1.897       .  S
O38          C40   1.263       .  A
O38         Al39   1.899       .  S
Al39         O47   1.894       .  S
Al39         O49   1.909       .  S
Al39       O2032   1.787       .  S
C40         C226   1.491       .  S
C40          O53   1.264       .  A
O41          C51   1.254       .  A
O41       Al2027   1.884       .  S
O42          C55   1.266       .  A
O42         Al52   1.933       .  S
Al43         O53   1.916       .  S
Al43       O2025   1.884   1_455  S
Al43       O2040   1.927   1_455  S
Al43       O2032   1.789       .  S
O44          C51   1.254       .  A
O44         Al52   1.883       .  S
O45        C2038   1.249       .  A
O45         Al52   1.858       .  S
O46         Al52   1.940       .  S
O47          C54   1.265       .  A
O48         Al52   1.787       .  S
O48       Al2023   1.794       .  S
O48       Al2027   1.793       .  S
O49          C50   1.259       .  A
C50         C178   1.465       .  S
C51         C210   1.460       .  S
C54         C309   1.464       .  S
C54        O2029   1.253   1_455  A
C55         C194   1.518       .  S
C55          O56   1.263       .  A
O56       Al2027   1.929       .  S
C57          C58   1.429       .  A
C57          C62   1.425       .  A
C57         C162   1.486       .  S
C58        C1051   1.425   1_545  A
C58         C373   1.507       .  S
C59          C60   1.422       .  A
C59        C1050   1.424       .  A
C59         C229   1.496       .  S
C60          C61   1.428       .  A
C60         C149   1.511       .  S
C61        C1054   1.420       .  A
C61         C213   1.476       .  S
C62        C1053   1.423   1_545  A
C62         C357   1.534       .  S
O63          C78   1.264       .  A
O63         Al71   1.942       .  S
C64         C146   1.493       .  S
C64          O74   1.263       .  A
C64          O65   1.261       .  A
O65         Al67   1.918       .  S
O66          C68   1.267       .  A
O66         Al67   1.932       .  S
Al67         O75   1.911       .  S
Al67         O77   1.908       .  S
Al67         O76   1.792       .  S
C68         C466   1.493       .  S
C68          O81   1.264       .  A
O69          C79   1.264       .  A
O69         Al71   1.940       .  S
O70          C83   1.268       .  A
O70         Al80   1.936       .  S
Al71         O84   1.932       .  S
Al71         O81   1.917       .  S
Al71         O76   1.796       .  S
O72          C79   1.259       .  A
O72         Al80   1.889       .  S
O73          C82   1.256       .  A
O73         Al80   1.876       .  S
O74         Al80   1.927       .  S
O75          C82   1.262       .  A
O76         Al80   1.785       .  S
O77          C78   1.259       .  A
C78         C277   1.498       .  S
C79         C450   1.500       .  S
C82         C133   1.462       .  S
C83         C293   1.509       .  S
C83          O84   1.265       .  A
C85          C86   1.424       .  A
C85          C90   1.421       .  A
C85         C117   1.503       .  S
C86          C87   1.420       .  A
C86         C341   1.482       .  S
C87          C88   1.422       .  A
C87         C197   1.519       .  S
C88          C89   1.419       .  A
C88         C130   1.490       .  S
C89          C90   1.414       .  A
C89         C181   1.490       .  S
C90         C325   1.502       .  S
O91         C106   1.259       .  A
O91         Al99   1.898       .  S
C92         C114   1.479       .  S
C92         O102   1.256       .  A
C92          O93   1.265       .  A
O93         Al95   1.930       .  S
O94          C96   1.252       .  A
O94         Al95   1.880       .  S
Al95        O103   1.878       .  S
Al95        O105   1.938       .  S
Al95        O104   1.778       .  S
C96         C261   1.491       .  S
C96         O109   1.265       .  A
O97         C107   1.257       .  A
O97         Al99   1.874       .  S
O98         C111   1.257       .  A
O98        Al108   1.890       .  S
Al99        O112   1.931       .  S
Al99        O109   1.924       .  S
Al99        O104   1.789       .  S
O100        C107   1.265       .  A
O100       Al108   1.917       .  S
O101        C110   1.261       .  A
O101       Al108   1.902       .  S
O102       Al108   1.888       .  S
O103        C110   1.255       .  A
O104       Al108   1.778       .  S
O105        C106   1.269       .  A
C106        C405   1.484       .  S
C107        C245   1.458       .  S
C110        C165   1.456       .  S
C111        C421   1.483       .  S
C111        O112   1.262       .  A
C113        C114   1.397       .  A
C113        C118   1.407       .  A
C113        H120   1.080       .  S
C114        C115   1.414       .  A
C115        C116   1.406       .  A
C115        C122   1.516       .  S
C116        C117   1.403       .  A
C116        H121   1.080       .  S
C117        C118   1.427       .  A
C118        C119   1.519       .  S
C119        F123   1.384       .  S
C119        F124   1.379       .  S
C119        F125   1.383       .  S
C122        F126   1.381       .  S
C122        F127   1.374       .  S
C122        F128   1.378       .  S
C129        C130   1.402       .  A
C129        C134   1.399       .  A
C129        H136   1.081       .  S
C130        C131   1.427       .  A
C131        C132   1.401       .  A
C131        C138   1.518       .  S
C132        C133   1.394       .  A
C132        H137   1.085       .  S
C133        C134   1.412       .  A
C134        C135   1.515       .  S
C135        F139   1.382       .  S
C135        F140   1.369       .  S
C135        F141   1.381       .  S
C138        F142   1.382       .  S
C138        F143   1.375       .  S
C138        F144   1.384       .  S
C145        C146   1.402       .  A
C145        C150   1.410       .  A
C145        H152   1.084       .  S
C146        C147   1.410       .  A
C147        C148   1.412       .  A
C147        C154   1.508       .  S
C148        C149   1.407       .  A
C148        H153   1.080       .  S
C149        C150   1.424       .  A
C150        C151   1.516       .  S
C151        F155   1.382       .  S
C151        F157   1.377       .  S
C151       F1148   1.382       .  S
C154        F158   1.382       .  S
C154        F159   1.376       .  S
C154        F160   1.384       .  S
F156       C1143   1.383       .  S
C161        C162   1.404       .  A
C161        C166   1.398       .  A
C161        H168   1.082       .  S
C162        C163   1.429       .  A
C163        C164   1.400       .  A
C163        C170   1.521   1_545  S
C164        C165   1.393       .  A
C164        H169   1.085       .  S
C165        C166   1.410       .  A
C166        C167   1.517       .  S
C167        F171   1.384       .  S
C167        F172   1.380       .  S
C167        F173   1.371       .  S
C170        F175   1.381       .  S
C170        F176   1.380       .  S
C170       F1166   1.382       .  S
F174       C1162   1.382       .  S
C177        C178   1.396       .  A
C177        C182   1.397       .  A
C177        H184   1.079       .  S
C178        C179   1.414       .  A
C179        C180   1.405       .  A
C179        C186   1.518       .  S
C180        C181   1.406       .  A
C180        H185   1.077       .  S
C181        C182   1.420       .  A
C182        C183   1.520       .  S
C183        F187   1.383       .  S
C183        F188   1.379       .  S
C183        F189   1.384       .  S
C186        F190   1.381       .  S
C186        F191   1.384       .  S
C186        F192   1.381       .  S
C193        C194   1.412       .  A
C193        C198   1.417       .  A
C193        H200   1.084       .  S
C194        C195   1.427       .  A
C195        C196   1.413       .  A
C195        C202   1.520       .  S
C196        C197   1.406       .  A
C196        H201   1.081       .  S
C197        C198   1.422       .  A
C198        C199   1.512       .  S
C199        F203   1.382       .  S
C199        F204   1.381       .  S
C199        F205   1.383       .  S
C202        F206   1.376       .  S
C202        F207   1.384       .  S
C202        F208   1.385       .  S
C209        C210   1.399       .  A
C209        C214   1.401       .  A
C209        H216   1.077       .  S
C210        C211   1.405       .  A
C211        C212   1.393       .  A
C211        C218   1.513       .  S
C212        C213   1.402       .  A
C212        H217   1.077       .  S
C213        C214   1.416       .  A
C214        C215   1.515       .  S
C215        F219   1.383       .  S
C215        F220   1.383       .  S
C215        F221   1.377       .  S
C218        F222   1.382       .  S
C218        F223   1.380       .  S
C218        F224   1.385       .  S
C225        C226   1.410       .  A
C225        C230   1.411       .  A
C225        H232   1.084       .  S
C226        C227   1.419       .  A
C227        C228   1.398       .  A
C227        C234   1.521       .  S
C228        C229   1.398       .  A
C228        H233   1.074       .  S
C229        C230   1.418       .  A
C230        C231   1.515       .  S
C231        F235   1.383       .  S
C231        F236   1.380       .  S
C231       F1229   1.383       .  S
C234        F238   1.377       .  S
C234        F239   1.383       .  S
C234        F240   1.385       .  S
F237       C1223   1.383       .  S
C241        C242   1.406       .  A
C241        C246   1.407       .  A
C241        H248   1.083       .  S
C242        C243   1.426       .  A
C243        C244   1.391       .  A
C243        C250   1.519       .  S
C244        C245   1.390       .  A
C244        H249   1.085       .  S
C245        C246   1.410       .  A
C246        C247   1.515       .  S
C247        F251   1.384       .  S
C247        F252   1.382       .  S
C247        F253   1.383       .  S
C250        F254   1.375       .  S
C250        F255   1.384       .  S
C250        F256   1.378       .  S
C257        C258   1.401       .  A
C257        C262   1.404       .  A
C257        H264   1.082       .  S
C258        C259   1.421       .  A
C259        C260   1.401       .  A
C259        C762   1.519       .  S
C260        C261   1.403       .  A
C260        H761   1.084       .  S
C261        C262   1.426       .  A
C262        C263   1.518       .  S
C263        F267   1.385       .  S
C263        F268   1.382       .  S
C263        F269   1.383       .  S
H265        C756   1.084       .  S
C266        C755   1.520       .  S
C266        F270   1.381       .  S
C266        F271   1.377       .  S
C266        F272   1.385       .  S
C273        C274   1.407       .  A
C273        C278   1.411       .  A
C273        H280   1.083   1_554  S
C274        C275   1.432       .  A
C275        C276   1.414       .  A
C275        C282   1.507       .  S
C276        C277   1.398       .  A
C276        H281   1.084       .  S
C277        C278   1.415       .  A
C278        C279   1.506   1_554  S
C279        F283   1.385       .  S
C279        F284   1.381       .  S
C279        F285   1.378   1_556  S
C282        F287   1.363       .  S
C282        F288   1.385       .  S
C282        F782   1.381       .  S
F286        C778   1.383       .  S
C289        C290   1.415       .  A
C289        C294   1.419       .  A
C289        H296   1.080   1_554  S
C290        C291   1.433       .  A
C291        C292   1.414       .  A
C291        C794   1.512       .  S
C292        C293   1.404       .  A
C292        H297   1.085       .  S
C293        C294   1.418       .  A
C294        C295   1.516   1_554  S
C295        F299   1.385       .  S
C295        F300   1.377       .  S
C295        F301   1.383       .  S
C298        C787   1.513       .  S
C298        F303   1.383       .  S
C298        F304   1.383       .  S
C298        F798   1.370       .  S
F302        C794   1.371       .  S
C305        C310   1.396       .  A
C305       C2290   1.398       .  A
C305        H312   1.082       .  S
C306        C307   1.424       .  A
C306       C2289   1.399   1_455  A
C306       C2016   1.485   1_455  S
C307        C308   1.393       .  A
C307        C314   1.513       .  S
C308        C309   1.392       .  A
C308        H313   1.083       .  S
C309       C2294   1.420   1_455  A
C310       C2293   1.423       .  A
C310        C311   1.521       .  S
C311        F315   1.384       .  S
C311        F316   1.366       .  S
C311        F317   1.382       .  S
C314        F318   1.381       .  S
C314        F319   1.375       .  S
C314        F320   1.384       .  S
C321        C322   1.406       .  A
C321        C326   1.411       .  A
C321        H328   1.079       .  S
C322        C323   1.413       .  A
C323        C324   1.405       .  A
C323        C330   1.516       .  S
C324        C325   1.407       .  A
C324        H329   1.080       .  S
C325        C326   1.418       .  A
C326        C327   1.514       .  S
C327        F331   1.384       .  S
C327        F332   1.380       .  S
C327        F333   1.383       .  S
C330        F334   1.383       .  S
C330        F335   1.375       .  S
C330        F336   1.385       .  S
C337        C338   1.395       .  A
C337        C342   1.397       .  A
C337        H344   1.082       .  S
C338        C339   1.413       .  A
C339        C340   1.403       .  A
C339        C346   1.517       .  S
C340        C341   1.402       .  A
C340        H345   1.076       .  S
C341        C342   1.422       .  A
C342        C343   1.521       .  S
C343        F347   1.383       .  S
C343        F348   1.377       .  S
C343        F349   1.384       .  S
C346        F350   1.383       .  S
C346        F351   1.382       .  S
C346        F352   1.384       .  S
C353        C354   1.400       .  A
C353        C358   1.415       .  A
C353        H360   1.085       .  S
C354        C355   1.417       .  A
C355        C356   1.419       .  A
C355        C362   1.514       .  S
C356        C357   1.412       .  A
C356        H361   1.077       .  S
C357        C358   1.430       .  A
C358       C1351   1.507       .  S
C359       C1350   1.506       .  S
C359        F363   1.383       .  S
C359        F364   1.368       .  S
C359       F1357   1.383       .  S
C362        F366   1.383       .  S
C362        F367   1.379       .  S
C362        F368   1.385       .  S
F365       C1351   1.383       .  S
C369        C370   1.397       .  A
C369        C374   1.404       .  A
C369        H376   1.086       .  S
C370        C371   1.418       .  A
C371        C372   1.409       .  A
C371        C378   1.511       .  S
C372        C373   1.406       .  A
C372        H377   1.083       .  S
C373        C374   1.427       .  A
C374        C375   1.507       .  S
C375        F379   1.383   1_545  S
C375        F380   1.384       .  S
C375        F381   1.363   1_545  S
C378        F382   1.377       .  S
C378        F383   1.382       .  S
C378        F384   1.385       .  S
C385        C386   1.413       .  A
C385        C390   1.419       .  A
C385        H392   1.084       .  S
C386       C2371   1.422       .  A
C387        C388   1.410       .  A
C387       C2370   1.424       .  A
C387        C394   1.506       .  S
C388        C389   1.400   1_655  A
C388        H393   1.075       .  S
C389       C2374   1.419       .  A
C390       C2373   1.421       .  A
C390        C391   1.515       .  S
C391        F395   1.383       .  S
C391        F396   1.379       .  S
C391        F397   1.383       .  S
C394        F398   1.379       .  S
C394        F399   1.382   1_655  S
C394        F400   1.366       .  S
C401        C402   1.410       .  A
C401        C406   1.409       .  A
C401        H408   1.079       .  S
C402        C403   1.424       .  A
C403        C404   1.412       .  A
C403       C1402   1.509   1_545  S
C404        C405   1.401       .  A
C404        H409   1.085       .  S
C405        C406   1.410       .  A
C406        C407   1.517       .  S
C407        F411   1.385       .  S
C407        F412   1.383       .  S
C407        F413   1.381       .  S
C410       C1395   1.512       .  S
C410        F414   1.383       .  S
C410        F415   1.376       .  S
C410        F416   1.383       .  S
C417        C418   1.405       .  A
C417        C422   1.405       .  A
C417        H920   1.083       .  S
C418        C419   1.426       .  A
C419        C420   1.407       .  A
C419        C426   1.508   1_545  S
C420        C421   1.399       .  A
C420        H425   1.085       .  S
C421        C422   1.413       .  A
C422        C919   1.512       .  S
C423        C918   1.512   1_554  S
C423        F427   1.385       .  S
C423        F428   1.381   1_554  S
C423        F925   1.382       .  S
H424        C913   1.083   1_554  S
C426        F430   1.384       .  S
C426        F431   1.368       .  S
C426        F432   1.382       .  S
F429        C919   1.382       .  S
C433        C438   1.412       .  A
C433       C2418   1.400   1_455  A
C433        H440   1.084       .  S
C434        C435   1.408       .  A
C434       C2417   1.398       .  A
C435        C436   1.397       .  A
C435        C442   1.510       .  S
C436        C437   1.399       .  A
C436        H441   1.081       .  S
C437       C2422   1.429       .  A
C438       C2421   1.429   1_455  A
C438       C1431   1.517   1_545  S
C439       C1430   1.516       .  S
C439        F443   1.383   1_455  S
C439        F445   1.382       .  S
C439       F2428   1.381       .  S
C442        F446   1.381       .  S
C442        F448   1.379       .  S
C442       F2431   1.365       .  S
F444       C2423   1.381       .  S
F447       C2426   1.364       .  S
C449        C450   1.405       .  A
C449        C454   1.404       .  A
C449        H456   1.073       .  S
C450        C451   1.419   1_554  A
C451        C452   1.408       .  A
C451        C458   1.513       .  S
C452        C453   1.404   1_556  A
C452        H457   1.079       .  S
C453        C454   1.417       .  A
C454       C1447   1.515       .  S
C455       C1446   1.514       .  S
C455        F461   1.372   1_565  S
C455        F955   1.383       .  S
C455        F956   1.383   1_565  S
C458        F462   1.383       .  S
C458        F463   1.379       .  S
C458        F464   1.385       .  S
F459        C951   1.384       .  S
F460        C951   1.383   1_545  S
C465        C466   1.410       .  A
C465        C470   1.416       .  A
C465        H472   1.084       .  S
C466        C467   1.421   1_554  A
C467        C468   1.404       .  A
C467        C970   1.520       .  S
C468        C469   1.401   1_556  A
C468        H969   1.078       .  S
C469        C470   1.420       .  A
C470        C471   1.515       .  S
C471        F475   1.383       .  S
C471        F476   1.383       .  S
C471        F477   1.380       .  S
H473        C964   1.072       .  S
C474        C963   1.517       .  S
C474        F478   1.376       .  S
C474        F480   1.385       .  S
C474        F975   1.383       .  S
F479        C970   1.382       .  S
C481        C482   1.408       .  A
C481        C486   1.411       .  A
C481        H488   1.079       .  S
C482       C2467   1.414       .  A
C482       C1985   1.498       .  S
C483        C484   1.402       .  A
C483       C2466   1.414   1_455  A
C483        C490   1.513       .  S
C484       C2469   1.403   1_455  A
C484        H489   1.083       .  S
C485        C486   1.411       .  A
C485       C2468   1.403       .  A
C486        C487   1.511       .  S
C487        F491   1.385       .  S
C487        F492   1.383       .  S
C487        F493   1.376       .  S
C490        F494   1.373       .  S
C490        F495   1.377   1_554  S
C490        F496   1.382   1_455  S
C497       C2482   1.422   1_455  A
C497        C502   1.425       .  A
C497       C2962   1.497       .  S
C498       C2481   1.423       .  A
C498        C995   1.419       .  A
C498        C949   1.502       .  S
C499        C994   1.418   1_545  A
C499        C500   1.430       .  A
C499        C898   1.512       .  S
C500       C2485   1.428       .  A
C500        C933   1.495       .  S
C501       C2484   1.426   1_455  A
C501        C998   1.425   1_546  A
C501        C914   1.504       .  S
C502        C997   1.424       .  A
C502        C965   1.508       .  S
O503        C518   1.264       .  A
O503       Al511   1.928       .  S
C504        C885   1.510       .  S
C504        O514   1.256       .  A
C504       O2489   1.265   1_455  A
O505       C2488   1.264       .  A
O505       Al507   1.945       .  S
O506        C508   1.257       .  A
O506       Al507   1.886       .  S
Al507       O515   1.882       .  S
Al507       O517   1.944       .  S
Al507      O2500   1.779       .  S
C508        C834   1.464       .  S
C508        O521   1.263       .  A
O509        C519   1.260       .  A
O509      Al2495   1.897       .  S
O510        C523   1.259       .  A
O510       Al520   1.898       .  S
Al511      O2493   1.903       .  S
Al511      O2508   1.927       .  S
Al511       O521   1.912       .  S
Al511      O2500   1.802       .  S
O512        C519   1.267       .  A
O512       Al520   1.914       .  S
O513       C2506   1.269   1_455  A
O513       Al520   1.937       .  S
O514       Al520   1.920       .  S
O515        C522   1.257       .  A
O516      Al2491   1.776   1_455  S
O516      Al2495   1.804       .  S
O516       Al520   1.779       .  S
O517        C518   1.268       .  A
C518        C850   1.504       .  S
C519        C818   1.487       .  S
C522        C930   1.467       .  S
C522       O2497   1.268       .  A
C523        C866   1.490       .  S
C523        O524   1.259       .  A
O524      Al2495   1.931       .  S
C525        C526   1.427   1_556  A
C525       C2514   1.420   1_556  A
C525        C882   1.526       .  S
C526        C754   1.489   1_554  S
C527        C528   1.438       .  A
C527        C786   1.538       .  S
C528       C2513   1.430       .  A
C528       C2786   1.483       .  S
C529       C2512   1.427   1_455  A
C529        C770   1.525       .  S
C530       C2509   1.422   1_454  A
C530        C738   1.479   1_554  S
O531        C546   1.254       .  A
O531       Al539   1.891       .  S
C532        C981   1.490       .  S
C532        O542   1.267       .  A
C532       O2517   1.257       .  A
O533       C2516   1.260       .  A
O533       Al535   1.909       .  S
O534        C536   1.264       .  A
O534       Al535   1.914       .  S
Al535       O543   1.903       .  S
Al535       O545   1.913       .  S
Al535      O2528   1.791       .  S
C536        C722   1.488       .  S
C536        O549   1.264       .  A
O537        C547   1.256       .  A
O537      Al2523   1.887       .  S
O538        C551   1.264       .  A
O538       Al548   1.935       .  S
Al539      O2521   1.891   1_455  S
Al539      O2536   1.942   1_455  S
Al539       O549   1.915       .  S
Al539      O2528   1.792       .  S
O540        C547   1.260       .  A
O540       Al548   1.896       .  S
O541       C2534   1.252       .  A
O541       Al548   1.862       .  S
O542       Al548   1.934       .  S
O543        C550   1.264       .  A
O544      Al2519   1.791       .  S
O544      Al2523   1.788       .  S
O544       Al548   1.783       .  S
O545        C546   1.259       .  A
C546        C674   1.472       .  S
C547        C706   1.475       .  S
C550        C805   1.467   1_455  S
C550       O2525   1.253   1_455  A
C551        C690   1.520       .  S
C551        O552   1.261       .  A
O552      Al2523   1.929       .  S
C553        C554   1.425       .  A
C553        C558   1.427       .  A
C553        C658   1.481       .  S
C554       C1547   1.420   1_545  A
C554        C869   1.512       .  S
C555       C1546   1.417       .  A
C555        C556   1.424       .  A
C555        C725   1.499       .  S
C556        C557   1.435       .  A
C556        C645   1.507       .  S
C557       C1550   1.426       .  A
C557        C709   1.497       .  S
C558       C1549   1.427   1_545  A
C558        C853   1.535       .  S
O559        C574   1.262       .  A
O559       Al567   1.939       .  S
C560        C642   1.496       .  S
C560        O570   1.261       .  A
C560        O561   1.259       .  A
O561       Al563   1.924       .  S
O562        C564   1.269       .  A
O562       Al563   1.929       .  S
Al563       O571   1.925       .  S
Al563       O573   1.911       .  S
Al563       O572   1.793       .  S
C564        C962   1.492       .  S
C564        O577   1.263       .  A
O565        C575   1.265       .  A
O565       Al567   1.937       .  S
O566        C579   1.267       .  A
O566       Al576   1.935       .  S
Al567       O580   1.929       .  S
Al567       O577   1.906       .  S
Al567       O572   1.799       .  S
O568        C575   1.258       .  A
O568       Al576   1.894       .  S
O569        C578   1.256       .  A
O569       Al576   1.878       .  S
O570       Al576   1.921       .  S
O571        C578   1.266       .  A
O572       Al576   1.786       .  S
O573        C574   1.260       .  A
C574        C773   1.503       .  S
C575        C946   1.497       .  S
C578        C629   1.468       .  S
C579        C789   1.508       .  S
C579        O580   1.264       .  A
C581        C582   1.425       .  A
C581        C586   1.422       .  A
C581        C613   1.508       .  S
C582        C583   1.418       .  A
C582        C837   1.479       .  S
C583        C584   1.419       .  A
C583        C693   1.513       .  S
C584        C585   1.417       .  A
C584        C626   1.494       .  S
C585        C586   1.414       .  A
C585        C677   1.485       .  S
C586        C821   1.501       .  S
O587        C602   1.259       .  A
O587       Al595   1.904       .  S
C588        C610   1.481       .  S
C588        O598   1.256       .  A
C588        O589   1.261       .  A
O589       Al591   1.922       .  S
O590        C592   1.252       .  A
O590       Al591   1.874       .  S
Al591       O599   1.872       .  S
Al591       O601   1.929       .  S
Al591       O600   1.782       .  S
C592        C757   1.491       .  S
C592        O605   1.266       .  A
O593        C603   1.257       .  A
O593       Al595   1.878       .  S
O594        C607   1.256       .  A
O594       Al604   1.888       .  S
Al595       O608   1.928       .  S
Al595       O605   1.927       .  S
Al595       O600   1.791       .  S
O596        C603   1.264       .  A
O596       Al604   1.910       .  S
O597        C606   1.260       .  A
O597       Al604   1.896       .  S
O598       Al604   1.892       .  S
O599        C606   1.255       .  A
O600       Al604   1.778       .  S
O601        C602   1.267       .  A
C602        C901   1.484       .  S
C603        C741   1.457       .  S
C606        C661   1.450       .  S
C607        C917   1.485       .  S
C607        O608   1.260       .  A
C609        C610   1.397       .  A
C609        C614   1.409       .  A
C609        H616   1.080       .  S
C610        C611   1.413       .  A
C611        C612   1.406       .  A
C611        C618   1.513       .  S
C612        C613   1.403       .  A
C612        H617   1.080       .  S
C613        C614   1.428       .  A
C614        C615   1.517       .  S
C615        F619   1.384       .  S
C615        F620   1.378       .  S
C615        F621   1.382       .  S
C618        F622   1.382       .  S
C618        F623   1.373       .  S
C618        F624   1.374       .  S
C625        C626   1.401       .  A
C625        C630   1.401       .  A
C625        H632   1.080       .  S
C626        C627   1.429       .  A
C627        C628   1.405       .  A
C627        C634   1.518       .  S
C628        C629   1.395       .  A
C628        H633   1.085       .  S
C629        C630   1.412       .  A
C630        C631   1.514       .  S
C631        F635   1.381       .  S
C631        F636   1.364       .  S
C631        F637   1.380       .  S
C634        F638   1.382       .  S
C634        F639   1.376       .  S
C634        F640   1.383       .  S
C641        C642   1.402       .  A
C641        C646   1.406       .  A
C641        H648   1.076       .  S
C642        C643   1.412       .  A
C643        C644   1.415       .  A
C643        C650   1.512       .  S
C644        C645   1.411       .  A
C644        H649   1.081       .  S
C645        C646   1.419       .  A
C646        C647   1.519       .  S
C647        F651   1.381       .  S
C647       F1644   1.380       .  S
C647        F653   1.379       .  S
C650        F654   1.380       .  S
C650        F655   1.383       .  S
C650        F656   1.384       .  S
F652       C1639   1.383       .  S
C657        C658   1.402       .  A
C657        C662   1.396       .  A
C657        H664   1.083       .  S
C658        C659   1.427       .  A
C659        C660   1.398       .  A
C659        C666   1.520   1_545  S
C660        C661   1.392       .  A
C660        H665   1.086       .  S
C661        C662   1.410       .  A
C662        C663   1.517       .  S
C663        F667   1.384       .  S
C663        F668   1.381       .  S
C663        F669   1.370       .  S
C666       F1662   1.384       .  S
C666        F671   1.381       .  S
C666        F672   1.381       .  S
F670       C1658   1.384       .  S
C673        C674   1.398       .  A
C673        C678   1.402       .  A
C673        H680   1.080       .  S
C674        C675   1.409       .  A
C675        C676   1.402       .  A
C675        C682   1.510       .  S
C676        C677   1.401       .  A
C676        H681   1.075       .  S
C677        C678   1.420       .  A
C678        C679   1.521       .  S
C679        F683   1.383       .  S
C679        F684   1.379       .  S
C679        F685   1.383       .  S
C682        F686   1.382       .  S
C682        F687   1.384       .  S
C682        F688   1.384       .  S
C689        C690   1.413       .  A
C689        C694   1.419       .  A
C689        H696   1.084       .  S
C690        C691   1.428       .  A
C691        C692   1.414       .  A
C691        C698   1.517       .  S
C692        C693   1.404       .  A
C692        H697   1.082       .  S
C693        C694   1.419       .  A
C694        C695   1.512       .  S
C695        F699   1.382       .  S
C695        F700   1.381       .  S
C695        F701   1.384       .  S
C698        F702   1.380       .  S
C698        F703   1.383       .  S
C698        F704   1.385       .  S
C705        C706   1.404       .  A
C705        C710   1.401       .  A
C705        H712   1.079       .  S
C706        C707   1.412       .  A
C707        C708   1.400       .  A
C707        C714   1.520       .  S
C708        C709   1.407       .  A
C708        H713   1.071       .  S
C709        C710   1.415       .  A
C710        C711   1.514       .  S
C711        F715   1.383       .  S
C711        F716   1.383       .  S
C711        F717   1.382       .  S
C714        F718   1.383       .  S
C714        F719   1.378       .  S
C714        F720   1.384       .  S
C721        C722   1.407       .  A
C721        C726   1.415       .  A
C721        H728   1.084       .  S
C722        C723   1.416       .  A
C723        C724   1.398       .  A
C723        C730   1.515       .  S
C724        C725   1.400       .  A
C724        H729   1.081       .  S
C725        C726   1.422       .  A
C726        C727   1.515       .  S
C727        F731   1.383       .  S
C727        F732   1.378       .  S
C727       F1725   1.383       .  S
C730        F734   1.382       .  S
C730        F735   1.381       .  S
C730        F736   1.384       .  S
F733       C1719   1.383       .  S
C737        C738   1.405       .  A
C737        C742   1.406       .  A
C737        H744   1.083       .  S
C738        C739   1.427   1_556  A
C739        C740   1.391       .  A
C739        C746   1.520       .  S
C740        C741   1.389   1_554  A
C740        H745   1.084       .  S
C741        C742   1.410       .  A
C742        C743   1.514       .  S
C743        F747   1.384       .  S
C743        F748   1.381       .  S
C743        F749   1.384       .  S
C746        F750   1.376       .  S
C746        F751   1.384       .  S
C746        F752   1.379       .  S
C753        C754   1.400       .  A
C753        C758   1.404       .  A
C753        H760   1.083       .  S
C754        C755   1.422   1_556  A
C755        C756   1.401       .  A
C756        C757   1.403   1_554  A
C757        C758   1.426       .  A
C758        C759   1.519       .  S
C759        F763   1.385       .  S
C759        F764   1.382       .  S
C759        F765   1.383       .  S
C762        F766   1.381       .  S
C762        F767   1.377       .  S
C762        F768   1.385       .  S
C769        C770   1.408       .  A
C769        C774   1.415       .  A
C769        H776   1.083       .  S
C770        C771   1.430       .  A
C771        C772   1.411       .  A
C771        C778   1.503       .  S
C772        C773   1.397       .  A
C772        H777   1.085       .  S
C773        C774   1.418       .  A
C774        C775   1.507       .  S
C775        F779   1.385       .  S
C775        F780   1.383       .  S
C775        F781   1.377       .  S
C778        F783   1.361       .  S
C778        F784   1.384       .  S
C785        C786   1.415       .  A
C785        C790   1.419       .  A
C785        H792   1.080       .  S
C786        C787   1.434       .  A
C787        C788   1.415       .  A
C788        C789   1.404       .  A
C788        H793   1.085       .  S
C789        C790   1.417       .  A
C790        C791   1.516       .  S
C791        F795   1.384       .  S
C791        F796   1.379       .  S
C791        F797   1.383       .  S
C794        F799   1.383       .  S
C794        F800   1.383       .  S
C801       C2786   1.400       .  A
C801        C806   1.398       .  A
C801        H808   1.082       .  S
C802       C2785   1.397       .  A
C802        C803   1.425   1_655  A
C802       C2512   1.479       .  S
C803        C804   1.396       .  A
C803        C810   1.518       .  S
C804        C805   1.393   1_455  A
C804        H809   1.079       .  S
C805       C2790   1.417       .  A
C806       C2789   1.423       .  A
C806        C807   1.521       .  S
C807        F811   1.383       .  S
C807        F812   1.368       .  S
C807        F813   1.382       .  S
C810        F814   1.379       .  S
C810        F815   1.375       .  S
C810        F816   1.384   1_455  S
C817        C818   1.405       .  A
C817        C822   1.409       .  A
C817        H824   1.080       .  S
C818        C819   1.414       .  A
C819        C820   1.404       .  A
C819        C826   1.518       .  S
C820        C821   1.407       .  A
C820        H825   1.079       .  S
C821        C822   1.419       .  A
C822        C823   1.513       .  S
C823        F827   1.384       .  S
C823        F828   1.378       .  S
C823        F829   1.383       .  S
C826        F830   1.383       .  S
C826        F831   1.376       .  S
C826        F832   1.385       .  S
C833        C834   1.393       .  A
C833        C838   1.395       .  A
C833        H840   1.082       .  S
C834        C835   1.412       .  A
C835        C836   1.403       .  A
C835        C842   1.511       .  S
C836        C837   1.401       .  A
C836        H841   1.080       .  S
C837        C838   1.423       .  A
C838        C839   1.520       .  S
C839        F843   1.383       .  S
C839        F844   1.376       .  S
C839        F845   1.384       .  S
C842        F846   1.384       .  S
C842        F847   1.382       .  S
C842        F848   1.385       .  S
C849        C850   1.400       .  A
C849        C854   1.414       .  A
C849        H856   1.085       .  S
C850        C851   1.418       .  A
C851        C852   1.420       .  A
C851        C858   1.516       .  S
C852        C853   1.413       .  A
C852        H857   1.078       .  S
C853        C854   1.432       .  A
C854       C1847   1.510       .  S
C855       C1846   1.512       .  S
C855        F859   1.383       .  S
C855        F860   1.372       .  S
C855       F1853   1.383       .  S
C858        F862   1.382       .  S
C858        F863   1.380       .  S
C858        F864   1.385       .  S
F861       C1847   1.383       .  S
C865        C866   1.397       .  A
C865        C870   1.406       .  A
C865        H872   1.086       .  S
C866        C867   1.417       .  A
C867        C868   1.409       .  A
C867        C874   1.512       .  S
C868        C869   1.407       .  A
C868        H873   1.083       .  S
C869        C870   1.429       .  A
C870        C871   1.508       .  S
C871        F875   1.383   1_545  S
C871        F876   1.385       .  S
C871        F877   1.363   1_545  S
C874        F878   1.375       .  S
C874        F879   1.382       .  S
C874        F880   1.385       .  S
C881        C882   1.414       .  A
C881        C886   1.422       .  A
C881        H888   1.083       .  S
C882       C2867   1.423       .  A
C883       C2866   1.422   1_655  A
C883        C884   1.410       .  A
C883        C890   1.507       .  S
C884        C885   1.400   1_655  A
C884        H889   1.075       .  S
C885       C2870   1.418       .  A
C886       C2869   1.417       .  A
C886        C887   1.511       .  S
C887        F891   1.384       .  S
C887        F892   1.378       .  S
C887        F893   1.380       .  S
C890        F894   1.377       .  S
C890        F895   1.383   1_655  S
C890        F896   1.368   1_556  S
C897        C898   1.408       .  A
C897        C902   1.406       .  A
C897        H904   1.077   1_556  S
C898        C899   1.424       .  A
C899        C900   1.413       .  A
C899       C1898   1.511   1_545  S
C900        C901   1.404       .  A
C900        H905   1.085       .  S
C901        C902   1.410       .  A
C902        C903   1.518   1_556  S
C903        F907   1.385       .  S
C903        F908   1.383       .  S
C903        F909   1.382       .  S
C906       C1891   1.510       .  S
C906        F910   1.383       .  S
C906        F911   1.375       .  S
C906        F912   1.383       .  S
C913        C914   1.405       .  A
C913        C918   1.407       .  A
C914        C915   1.426       .  A
C915        C916   1.405       .  A
C915        C922   1.508   1_545  S
C916        C917   1.398       .  A
C916        H921   1.086       .  S
C917        C918   1.416       .  A
C919        F923   1.384       .  S
C919        F924   1.382       .  S
C922        F926   1.384   1_565  S
C922        F927   1.368       .  S
C922        F928   1.383       .  S
C929       C2914   1.399   1_455  A
C929        C934   1.412       .  A
C929        H936   1.084       .  S
C930       C2913   1.398       .  A
C930        C931   1.406       .  A
C931        C932   1.396       .  A
C931        C938   1.512       .  S
C932        C933   1.400       .  A
C932        H937   1.080       .  S
C933       C2918   1.428       .  A
C934       C2917   1.430   1_455  A
C934       C1927   1.517   1_545  S
C935       C1926   1.518       .  S
C935        F939   1.382   1_455  S
C935       F2924   1.381   1_455  S
C935        F941   1.381       .  S
C938        F942   1.380       .  S
C938       F2927   1.364       .  S
C938        F944   1.380       .  S
F940       C2919   1.380       .  S
F943       C2922   1.367       .  S
C945        C946   1.407       .  A
C945        C950   1.410       .  A
C945        H952   1.085       .  S
C946        C947   1.420       .  A
C947        C948   1.408       .  A
C947        C954   1.516       .  S
C948        C949   1.404       .  A
C948        H953   1.080       .  S
C949        C950   1.421       .  A
C950       C1943   1.514       .  S
C951       C1942   1.514       .  S
C951        F957   1.374   1_565  S
C954        F958   1.383       .  S
C954        F959   1.381       .  S
C954        F960   1.385       .  S
C961        C962   1.405       .  A
C961        C966   1.412       .  A
C961        H968   1.078       .  S
C962        C963   1.413       .  A
C963        C964   1.406       .  A
C964        C965   1.405       .  A
C965        C966   1.421       .  A
C966        C967   1.515       .  S
C967        F971   1.383       .  S
C967        F972   1.383       .  S
C967        F973   1.381       .  S
C970        F974   1.373       .  S
C970        F976   1.383       .  S
C977        C978   1.406       .  A
C977        C982   1.409       .  A
C977        H984   1.078       .  S
C978       C2963   1.413       .  A
C978       C2481   1.496       .  S
C979       C2962   1.414       .  A
C979        C980   1.404       .  A
C979        C986   1.514       .  S
C980       C2965   1.406       .  A
C980        H985   1.083       .  S
C981       C2964   1.407       .  A
C981        C982   1.410       .  A
C982        C983   1.511       .  S
C983        F987   1.384       .  S
C983        F988   1.383       .  S
C983        F989   1.376       .  S
C986        F990   1.375       .  S
C986        F991   1.379       .  S
C986        F992   1.383   1_455  S
C993       C2978   1.423       .  A
C993        C998   1.428   1_655  A
C993       C3458   1.501       .  S
C994       C2977   1.420   1_556  A
C994       C1445   1.496   1_556  S
C995        C996   1.430       .  A
C995       C1394   1.511       .  S
C996       C2981   1.427       .  A
C996       C1429   1.495       .  S
C997       C2980   1.427   1_455  A
C997       C1410   1.501       .  S
C998       C1461   1.507       .  S
O999       C1014   1.262       .  A
O999      Al1007   1.924       .  S
C1000      C1381   1.510       .  S
C1000      O1010   1.258       .  A
C1000      O2985   1.266   1_455  A
O1001      C2984   1.265       .  A
O1001     Al1003   1.953       .  S
O1002      C1004   1.259       .  A
O1002     Al1003   1.885       .  S
Al1003     O1011   1.888       .  S
Al1003     O1013   1.939       .  S
Al1003     O2996   1.775       .  S
C1004      C1330   1.468       .  S
C1004      O1017   1.264       .  A
O1005      C1015   1.262       .  A
O1005     Al2991   1.910       .  S
O1006      C1019   1.260       .  A
O1006     Al1016   1.898       .  S
Al1007     O2989   1.902       .  S
Al1007     O3004   1.930       .  S
Al1007     O1017   1.918       .  S
Al1007     O2996   1.801       .  S
O1008      C1015   1.265       .  A
O1008     Al1016   1.913       .  S
O1009      C3002   1.267   1_455  A
O1009     Al1016   1.932       .  S
O1010     Al1016   1.923       .  S
O1011      C1018   1.258       .  A
O1012     Al2987   1.776   1_455  S
O1012     Al2991   1.801       .  S
O1012     Al1016   1.784       .  S
O1013      C1014   1.266       .  A
C1014      C1346   1.499       .  S
C1015      C1314   1.491       .  S
C1018      C1426   1.467       .  S
C1018      O2993   1.267       .  A
C1019      C1362   1.490       .  S
C1019      O1020   1.259       .  A
O1020     Al2991   1.924       .  S
C1021      C1022   1.428       .  A
C1021      C3010   1.421       .  A
C1021      C1378   1.525       .  S
C1022      C1519   1.432       .  A
C1022      C1250   1.494       .  S
C1023      C1518   1.427       .  A
C1023      C1024   1.436       .  A
C1023      C1282   1.544       .  S
C1024      C3009   1.430       .  A
C1024      C3282   1.476       .  S
C1025      C3008   1.430       .  A
C1025      C1522   1.417       .  A
C1025      C1266   1.524       .  S
C1026      C3005   1.422   1_455  A
C1026      C1521   1.419       .  A
C1026      C1234   1.481       .  S
O1027      C1042   1.256       .  A
O1027     Al1035   1.893   1_455  S
C1028      C1477   1.487       .  S
C1028      O1038   1.267       .  A
C1028      O3013   1.258       .  A
O1029      C3012   1.258   1_455  A
O1029     Al1031   1.907       .  S
O1030      C1032   1.263       .  A
O1030     Al1031   1.905       .  S
Al1031     O1039   1.904       .  S
Al1031     O1041   1.918       .  S
Al1031     O3024   1.791       .  S
C1032      C1218   1.493       .  S
C1032      O1045   1.263       .  A
O1033      C1043   1.255       .  A
O1033     Al3019   1.891       .  S
O1034      C1047   1.266       .  A
O1034     Al1044   1.926       .  S
Al1035     O3017   1.888       .  S
Al1035     O3032   1.928       .  S
Al1035     O1045   1.916   1_655  S
Al1035     O3024   1.792   1_655  S
O1036      C1043   1.253       .  A
O1036     Al1044   1.881       .  S
O1037      C3030   1.250       .  A
O1037     Al1044   1.857       .  S
O1038     Al1044   1.935       .  S
O1039      C1046   1.266       .  A
O1040     Al3015   1.792       .  S
O1040     Al3019   1.791       .  S
O1040     Al1044   1.785       .  S
O1041      C1042   1.261       .  A
C1042      C1170   1.471       .  S
C1043      C1202   1.463       .  S
C1046      C1301   1.469       .  S
C1046      O3021   1.252   1_455  A
C1047      C1186   1.514       .  S
C1047      O1048   1.262       .  A
O1048     Al3019   1.923       .  S
C1049      C1050   1.427       .  A
C1049      C1054   1.424       .  A
C1049      C1154   1.480       .  S
C1050      C1365   1.510       .  S
C1051      C1052   1.422       .  A
C1051      C1221   1.499       .  S
C1052      C1053   1.429       .  A
C1052      C1141   1.516       .  S
C1053      C1205   1.475       .  S
C1054      C1349   1.533       .  S
O1055      C1070   1.259       .  A
O1055     Al1063   1.925       .  S
C1056      C1138   1.495       .  S
C1056      O1066   1.263       .  A
C1056      O1057   1.258       .  A
O1057     Al1059   1.914       .  S
O1058      C1060   1.267       .  A
O1058     Al1059   1.919       .  S
Al1059     O1067   1.912       .  S
Al1059     O1069   1.904       .  S
Al1059     O1068   1.794       .  S
C1060      C1458   1.489       .  S
C1060      O1073   1.264       .  A
O1061      C1071   1.260       .  A
O1061     Al1063   1.924       .  S
O1062      C1075   1.270       .  A
O1062     Al1072   1.940       .  S
Al1063     O1076   1.937       .  S
Al1063     O1073   1.910       .  S
Al1063     O1068   1.802       .  S
O1064      C1071   1.257       .  A
O1064     Al1072   1.887       .  S
O1065      C1074   1.255       .  A
O1065     Al1072   1.872       .  S
O1066     Al1072   1.930       .  S
O1067      C1074   1.263       .  A
O1068     Al1072   1.784       .  S
O1069      C1070   1.257       .  A
C1070      C1269   1.486       .  S
C1071      C1442   1.493       .  S
C1074      C1125   1.464       .  S
C1075      C1285   1.514       .  S
C1075      O1076   1.266       .  A
C1077      C1078   1.424       .  A
C1077      C1082   1.424       .  A
C1077      C1109   1.506       .  S
C1078      C1079   1.419       .  A
C1078      C1333   1.483       .  S
C1079      C1080   1.423       .  A
C1079      C1189   1.515       .  S
C1080      C1081   1.421       .  A
C1080      C1122   1.494       .  S
C1081      C1082   1.417       .  A
C1081      C1173   1.495       .  S
C1082      C1317   1.504       .  S
O1083      C1098   1.259       .  A
O1083     Al1091   1.905       .  S
C1084      C1106   1.483       .  S
C1084      O1094   1.257       .  A
C1084      O1085   1.264       .  A
O1085     Al1087   1.928       .  S
O1086      C1088   1.254       .  A
O1086     Al1087   1.885       .  S
Al1087     O1095   1.880       .  S
Al1087     O1097   1.937       .  S
Al1087     O1096   1.781       .  S
C1088      C1253   1.492       .  S
C1088      O1101   1.264       .  A
O1089      C1099   1.258       .  A
O1089     Al1091   1.877       .  S
O1090      C1103   1.257       .  A
O1090     Al1100   1.893       .  S
Al1091     O1104   1.920       .  S
Al1091     O1101   1.920       .  S
Al1091     O1096   1.790       .  S
O1092      C1099   1.265       .  A
O1092     Al1100   1.920       .  S
O1093      C1102   1.260       .  A
O1093     Al1100   1.899       .  S
O1094     Al1100   1.892       .  S
O1095      C1102   1.256       .  A
O1096     Al1100   1.779       .  S
O1097      C1098   1.269       .  A
C1098      C1397   1.488       .  S
C1099      C1237   1.461       .  S
C1102      C1157   1.455       .  S
C1103      C1413   1.482       .  S
C1103      O1104   1.259       .  A
C1105      C1106   1.397       .  A
C1105      C1110   1.409       .  A
C1105      H1112   1.082       .  S
C1106      C1107   1.416       .  A
C1107      C1108   1.407       .  A
C1107      C1114   1.516       .  S
C1108      C1109   1.403       .  A
C1108      H1113   1.081       .  S
C1109      C1110   1.429       .  A
C1110      C1111   1.518       .  S
C1111      F1115   1.384       .  S
C1111      F1116   1.378       .  S
C1111      F1117   1.383       .  S
C1114      F1118   1.381       .  S
C1114      F1119   1.374       .  S
C1114      F1120   1.378       .  S
C1121      C1122   1.401       .  A
C1121      C1126   1.399       .  A
C1121      H1128   1.080       .  S
C1122      C1123   1.428       .  A
C1123      C1124   1.403       .  A
C1123      C1130   1.517       .  S
C1124      C1125   1.395       .  A
C1124      H1129   1.085       .  S
C1125      C1126   1.413       .  A
C1126      C1127   1.516       .  S
C1127      F1131   1.380       .  S
C1127      F1132   1.368       .  S
C1127      F1133   1.381       .  S
C1130      F1134   1.383       .  S
C1130      F1135   1.376       .  S
C1130      F1136   1.384       .  S
C1137      C1138   1.402       .  A
C1137      C1142   1.410       .  A
C1137      H1144   1.083       .  S
C1138      C1139   1.410       .  A
C1139      C1140   1.416       .  A
C1139      C1146   1.512       .  S
C1140      C1141   1.410       .  A
C1140      H1145   1.079       .  S
C1141      C1142   1.425       .  A
C1142      C1143   1.516       .  S
C1143      F1147   1.382       .  S
C1143      F1149   1.377       .  S
C1146      F1150   1.382       .  S
C1146      F1151   1.380       .  S
C1146      F1152   1.384   1_565  S
C1153      C1154   1.401       .  A
C1153      C1158   1.395       .  A
C1153      H1160   1.083       .  S
C1154      C1155   1.428       .  A
C1155      C1156   1.400       .  A
C1155      C1162   1.521       .  S
C1156      C1157   1.393       .  A
C1156      H1161   1.085       .  S
C1157      C1158   1.409       .  A
C1158      C1159   1.515       .  S
C1159      F1163   1.384       .  S
C1159      F1164   1.379       .  S
C1159      F1165   1.368       .  S
C1162      F1167   1.381       .  S
C1162      F1168   1.380       .  S
C1169      C1170   1.396       .  A
C1169      C1174   1.400       .  A
C1169      H1176   1.080       .  S
C1170      C1171   1.410       .  A
C1171      C1172   1.406       .  A
C1171      C1178   1.516       .  S
C1172      C1173   1.407       .  A
C1172      H1177   1.073       .  S
C1173      C1174   1.423       .  A
C1174      C1175   1.521       .  S
C1175      F1179   1.383       .  S
C1175      F1180   1.379       .  S
C1175      F1181   1.383       .  S
C1178      F1182   1.378       .  S
C1178      F1183   1.383       .  S
C1178      F1184   1.385       .  S
C1185      C1186   1.412       .  A
C1185      C1190   1.416       .  A
C1185      H1192   1.084       .  S
C1186      C1187   1.426       .  A
C1187      C1188   1.410       .  A
C1187      C1194   1.520       .  S
C1188      C1189   1.405       .  A
C1188      H1193   1.081       .  S
C1189      C1190   1.422       .  A
C1190      C1191   1.512       .  S
C1191      F1195   1.382       .  S
C1191      F1196   1.380       .  S
C1191      F1197   1.384       .  S
C1194      F1198   1.374       .  S
C1194      F1199   1.383       .  S
C1194      F1200   1.385       .  S
C1201      C1202   1.399       .  A
C1201      C1206   1.402       .  A
C1201      H1208   1.078       .  S
C1202      C1203   1.406       .  A
C1203      C1204   1.394       .  A
C1203      C1210   1.511       .  S
C1204      C1205   1.401       .  A
C1204      H1209   1.079       .  S
C1205      C1206   1.417       .  A
C1206      C1207   1.515   1_565  S
C1207      F1211   1.384   1_545  S
C1207      F1212   1.383       .  S
C1207      F1213   1.377       .  S
C1210      F1214   1.382       .  S
C1210      F1215   1.380       .  S
C1210      F1216   1.385       .  S
C1217      C1218   1.409       .  A
C1217      C1222   1.411       .  A
C1217      H1224   1.084       .  S
C1218      C1219   1.420       .  A
C1219      C1220   1.401       .  A
C1219      C1226   1.522       .  S
C1220      C1221   1.400       .  A
C1220      H1225   1.075       .  S
C1221      C1222   1.419       .  A
C1222      C1223   1.515   1_565  S
C1223      F1227   1.383   1_545  S
C1223      F1228   1.380       .  S
C1226      F1230   1.378       .  S
C1226      F1231   1.383       .  S
C1226      F1232   1.385       .  S
C1233      C1234   1.406       .  A
C1233      C1238   1.408       .  A
C1233      H1240   1.083       .  S
C1234      C1235   1.426       .  A
C1235      C1236   1.393       .  A
C1235      C1242   1.520       .  S
C1236      C1237   1.391       .  A
C1236      H1241   1.084       .  S
C1237      C1238   1.411       .  A
C1238      C1239   1.515       .  S
C1239      F1243   1.384       .  S
C1239      F1244   1.382       .  S
C1239      F1245   1.383       .  S
C1242      F1246   1.377       .  S
C1242      F1247   1.384       .  S
C1242      F1248   1.378       .  S
C1249      C1250   1.404       .  A
C1249      C1254   1.406       .  A
C1249      H1256   1.083       .  S
C1250      C1251   1.424       .  A
C1251      C1252   1.402       .  A
C1251      C1754   1.519       .  S
C1252      C1253   1.403       .  A
C1252      H1753   1.084       .  S
C1253      C1254   1.423       .  A
C1254      C1255   1.518       .  S
C1255      F1259   1.385       .  S
C1255      F1260   1.383       .  S
C1255      F1261   1.383       .  S
H1257      C1748   1.084       .  S
C1258      C1747   1.520       .  S
C1258      F1262   1.382       .  S
C1258      F1263   1.376       .  S
C1258      F1264   1.386       .  S
C1265      C1266   1.407       .  A
C1265      C1270   1.405       .  A
C1265      H1272   1.083       .  S
C1266      C1267   1.433       .  A
C1267      C1268   1.411       .  A
C1267      C1274   1.504       .  S
C1268      C1269   1.394       .  A
C1268      H1273   1.085       .  S
C1269      C1270   1.410       .  A
C1270      C1271   1.504       .  S
C1271      F1275   1.385       .  S
C1271      F1276   1.376   1_554  S
C1271      F1277   1.383       .  S
C1274      F1774   1.382       .  S
C1274      F1279   1.362       .  S
C1274      F1280   1.386       .  S
F1278      C1770   1.381       .  S
C1281      C1282   1.416       .  A
C1281      C1286   1.422       .  A
C1281      H1288   1.080   1_554  S
C1282      C1283   1.433       .  A
C1283      C1284   1.416       .  A
C1283      C1786   1.510       .  S
C1284      C1285   1.404       .  A
C1284      H1289   1.085       .  S
C1285      C1286   1.419       .  A
C1286      C1287   1.515   1_554  S
C1287      F1291   1.385       .  S
C1287      F1292   1.378       .  S
C1287      F1293   1.383       .  S
C1290      C1779   1.514       .  S
C1290      F1790   1.371       .  S
C1290      F1295   1.383       .  S
C1290      F1296   1.383       .  S
F1294      C1786   1.369       .  S
C1297      C3282   1.398       .  A
C1297      C1302   1.396       .  A
C1297      H1304   1.082       .  S
C1298      C3281   1.399   1_455  A
C1298      C1299   1.424       .  A
C1298      C3008   1.490       .  S
C1299      C1300   1.394       .  A
C1299      C1306   1.512       .  S
C1300      C1301   1.392       .  A
C1300      H1305   1.080       .  S
C1301      C3286   1.423   1_455  A
C1302      C3285   1.424       .  A
C1302      C1303   1.521       .  S
C1303      F1307   1.383       .  S
C1303      F1308   1.368       .  S
C1303      F1309   1.383       .  S
C1306      F1310   1.382       .  S
C1306      F1311   1.373       .  S
C1306      F1312   1.384       .  S
C1313      C1314   1.407       .  A
C1313      C1318   1.412       .  A
C1313      H1320   1.080       .  S
C1314      C1315   1.413       .  A
C1315      C1316   1.406       .  A
C1315      C1322   1.517       .  S
C1316      C1317   1.408       .  A
C1316      H1321   1.080       .  S
C1317      C1318   1.418       .  A
C1318      C1319   1.514       .  S
C1319      F1323   1.383       .  S
C1319      F1324   1.381       .  S
C1319      F1325   1.383       .  S
C1322      F1326   1.383       .  S
C1322      F1327   1.377       .  S
C1322      F1328   1.385       .  S
C1329      C1330   1.396       .  A
C1329      C1334   1.397       .  A
C1329      H1336   1.080       .  S
C1330      C1331   1.411       .  A
C1331      C1332   1.404       .  A
C1331      C1338   1.515       .  S
C1332      C1333   1.403       .  A
C1332      H1337   1.076       .  S
C1333      C1334   1.420       .  A
C1334      C1335   1.520       .  S
C1335      F1339   1.384       .  S
C1335      F1340   1.378       .  S
C1335      F1341   1.383       .  S
C1338      F1342   1.384       .  S
C1338      F1343   1.382       .  S
C1338      F1344   1.385       .  S
C1345      C1346   1.398       .  A
C1345      C1350   1.413       .  A
C1345      H1352   1.085       .  S
C1346      C1347   1.415       .  A
C1347      C1348   1.419       .  A
C1347      C1354   1.514       .  S
C1348      C1349   1.413       .  A
C1348      H1353   1.078       .  S
C1349      C1350   1.430       .  A
C1351      F1355   1.384   1_545  S
C1351      F1356   1.372   1_545  S
C1354      F1358   1.383       .  S
C1354      F1359   1.378       .  S
C1354      F1360   1.385       .  S
C1361      C1362   1.396       .  A
C1361      C1366   1.404       .  A
C1361      H1368   1.086       .  S
C1362      C1363   1.418       .  A
C1363      C1364   1.410       .  A
C1363      C1370   1.512       .  S
C1364      C1365   1.407       .  A
C1364      H1369   1.083       .  S
C1365      C1366   1.429       .  A
C1366      C1367   1.507       .  S
C1367      F1371   1.383       .  S
C1367      F1372   1.384       .  S
C1367      F1373   1.361       .  S
C1370      F1374   1.377       .  S
C1370      F1375   1.383       .  S
C1370      F1376   1.385       .  S
C1377      C1378   1.412       .  A
C1377      C1382   1.420       .  A
C1377      H1384   1.083       .  S
C1378      C3363   1.422       .  A
C1379      C3362   1.421       .  A
C1379      C1380   1.409       .  A
C1379      C1386   1.506       .  S
C1380      C1381   1.401   1_655  A
C1380      H1385   1.075       .  S
C1381      C3366   1.419       .  A
C1382      C3365   1.419       .  A
C1382      C1383   1.511       .  S
C1383      F1387   1.384       .  S
C1383      F1388   1.379       .  S
C1383      F1389   1.380       .  S
C1386      F1390   1.376       .  S
C1386      F1391   1.383   1_655  S
C1386      F1392   1.369       .  S
C1393      C1394   1.409       .  A
C1393      C1398   1.408       .  A
C1393      H1400   1.080       .  S
C1394      C1395   1.423       .  A
C1395      C1396   1.415       .  A
C1396      C1397   1.405       .  A
C1396      H1401   1.085       .  S
C1397      C1398   1.410       .  A
C1398      C1399   1.518       .  S
C1399      F1403   1.384       .  S
C1399      F1404   1.382       .  S
C1399      F1405   1.379       .  S
C1402      F1406   1.383       .  S
C1402      F1407   1.374       .  S
C1402      F1408   1.383   1_565  S
C1409      C1410   1.405       .  A
C1409      C1414   1.405       .  A
C1409      H1912   1.083       .  S
C1410      C1411   1.425       .  A
C1411      C1412   1.406       .  A
C1411      C1418   1.508       .  S
C1412      C1413   1.399       .  A
C1412      H1417   1.085       .  S
C1413      C1414   1.415       .  A
C1414      C1911   1.513       .  S
C1415      C1910   1.514   1_554  S
C1415      F1419   1.385       .  S
C1415      F1420   1.381   1_554  S
C1415      F1917   1.383       .  S
H1416      C1905   1.083   1_554  S
C1418      F1422   1.384       .  S
C1418      F1423   1.368       .  S
C1418      F1424   1.383       .  S
F1421      C1911   1.382       .  S
C1425      C3410   1.398   1_455  A
C1425      C1430   1.410       .  A
C1425      H1432   1.085       .  S
C1426      C3409   1.398       .  A
C1426      C1427   1.405       .  A
C1427      C1428   1.397       .  A
C1427      C1434   1.509       .  S
C1428      C1429   1.399       .  A
C1428      H1433   1.080       .  S
C1429      C3414   1.428       .  A
C1430      C3413   1.428   1_455  A
C1431      F1435   1.383   1_455  S
C1431      F3420   1.381       .  S
C1431      F1437   1.381       .  S
C1434      F1438   1.379       .  S
C1434      F3423   1.366       .  S
C1434      F1440   1.379       .  S
F1436      C3415   1.381       .  S
F1439      C3418   1.367       .  S
C1441      C1442   1.404       .  A
C1441      C1446   1.403       .  A
C1441      H1448   1.081       .  S
C1442      C1443   1.420   1_554  A
C1443      C1444   1.408       .  A
C1443      C1450   1.517       .  S
C1444      C1445   1.404   1_556  A
C1444      H1449   1.080       .  S
C1445      C1446   1.419       .  A
C1447      F1947   1.383       .  S
C1447      F1948   1.383       .  S
C1447      F1453   1.374       .  S
C1450      F1454   1.383       .  S
C1450      F1455   1.381       .  S
C1450      F1456   1.385       .  S
F1451      C1943   1.383       .  S
F1452      C1943   1.383       .  S
C1457      C1458   1.408       .  A
C1457      C1462   1.412       .  A
C1457      H1464   1.083       .  S
C1458      C1459   1.413   1_554  A
C1459      C1460   1.405       .  A
C1459      C1962   1.519       .  S
C1460      C1461   1.406   1_556  A
C1460      H1961   1.071       .  S
C1461      C1462   1.420       .  A
C1462      C1463   1.515       .  S
C1463      F1467   1.383   1_565  S
C1463      F1468   1.383       .  S
C1463      F1469   1.381   1_565  S
H1465      C1956   1.080       .  S
C1466      C1955   1.519       .  S
C1466      F1470   1.374       .  S
C1466      F1967   1.382       .  S
C1466      F1472   1.383       .  S
F1471      C1962   1.383       .  S
C1473      C1474   1.407       .  A
C1473      C1478   1.409       .  A
C1473      H1480   1.079       .  S
C1474      C3459   1.414       .  A
C1474      C2977   1.495       .  S
C1475      C3458   1.413   1_455  A
C1475      C1476   1.407       .  A
C1475      C1482   1.514       .  S
C1476      C3461   1.408   1_455  A
C1476      H1481   1.083       .  S
C1477      C3460   1.404       .  A
C1477      C1478   1.410       .  A
C1478      C1479   1.511       .  S
C1479      F1483   1.385   1_565  S
C1479      F1484   1.382       .  S
C1479      F1485   1.377       .  S
C1482      F1486   1.375       .  S
C1482      F1487   1.379   1_554  S
C1482      F1488   1.383   1_455  S
C1489      C3474   1.421   1_455  A
C1489      C1494   1.423       .  A
C1489      C3954   1.493       .  S
C1490      C3473   1.423       .  A
C1490      C1941   1.502       .  S
C1491      C1492   1.432       .  A
C1491      C1890   1.515       .  S
C1492      C3477   1.431       .  A
C1492      C1925   1.497       .  S
C1493      C3476   1.427   1_455  A
C1493      C1906   1.501       .  S
C1494      C1957   1.502       .  S
O1495      C1510   1.263       .  A
O1495     Al1503   1.924       .  S
C1496      C1877   1.501       .  S
C1496      O1506   1.258       .  A
C1496      O3481   1.263   1_455  A
O1497      C3480   1.265       .  A
O1497     Al1499   1.942       .  S
O1498      C1500   1.258       .  A
O1498     Al1499   1.893       .  S
Al1499     O1507   1.884       .  S
Al1499     O1509   1.944       .  S
Al1499     O3492   1.778       .  S
C1500      C1826   1.475       .  S
C1500      O1513   1.263       .  A
O1501      C1511   1.262       .  A
O1501     Al3487   1.906       .  S
O1502      C1515   1.258       .  A
O1502     Al1512   1.903       .  S
Al1503     O3485   1.905       .  S
Al1503     O3500   1.928       .  S
Al1503     O1513   1.919       .  S
Al1503     O3492   1.800       .  S
O1504      C1511   1.267       .  A
O1504     Al1512   1.921       .  S
O1505      C3498   1.266   1_455  A
O1505     Al1512   1.926       .  S
O1506     Al1512   1.918       .  S
O1507      C1514   1.257       .  A
O1508     Al3483   1.778   1_455  S
O1508     Al3487   1.804       .  S
O1508     Al1512   1.784       .  S
O1509      C1510   1.268       .  A
C1510      C1842   1.505       .  S
C1511      C1810   1.492       .  S
C1514      C1922   1.466       .  S
C1514      O3489   1.265       .  A
C1515      C1858   1.487       .  S
C1515      O1516   1.257       .  A
O1516     Al3487   1.916       .  S
C1517      C1518   1.428   1_556  A
C1517      C3506   1.419   1_556  A
C1517      C1874   1.518       .  S
C1518      C1746   1.484   1_554  S
C1519      C1520   1.440       .  A
C1519      C1778   1.536       .  S
C1520      C3505   1.432       .  A
C1520      C3778   1.489       .  S
C1521      C3504   1.432   1_455  A
C1521      C1762   1.525       .  S
C1522      C3501   1.418   1_554  A
C1522      C1730   1.475   1_554  S
O1523      C1538   1.256       .  A
O1523     Al1531   1.893       .  S
C1524      C1973   1.489       .  S
C1524      O1534   1.266       .  A
C1524      O3509   1.257       .  A
O1525      C3508   1.258       .  A
O1525     Al1527   1.904       .  S
O1526      C1528   1.264       .  A
O1526     Al1527   1.909       .  S
Al1527     O1535   1.911       .  S
Al1527     O1537   1.921       .  S
Al1527     O3520   1.789       .  S
C1528      C1714   1.491       .  S
C1528      O1541   1.263       .  A
O1529      C1539   1.256       .  A
O1529     Al3515   1.891       .  S
O1530      C1543   1.264       .  A
O1530     Al1540   1.933       .  S
Al1531     O3513   1.883   1_455  S
Al1531     O3528   1.932   1_455  S
Al1531     O1541   1.912       .  S
Al1531     O3520   1.788       .  S
O1532      C1539   1.259       .  A
O1532     Al1540   1.895       .  S
O1533      C3526   1.254       .  A
O1533     Al1540   1.869       .  S
O1534     Al1540   1.932       .  S
O1535      C1542   1.269       .  A
O1536     Al3511   1.793       .  S
O1536     Al3515   1.789       .  S
O1536     Al1540   1.784       .  S
O1537      C1538   1.261       .  A
C1538      C1666   1.476       .  S
C1539      C1698   1.475       .  S
C1542      C1797   1.472       .  S
C1542      O3517   1.252   1_455  A
C1543      C1682   1.523       .  S
C1543      O1544   1.263       .  A
O1544     Al3515   1.934       .  S
C1545      C1546   1.426       .  A
C1545      C1550   1.428       .  A
C1545      C1650   1.481       .  S
C1546      C1861   1.507       .  S
C1547      C1548   1.423       .  A
C1547      C1717   1.495       .  S
C1548      C1549   1.433       .  A
C1548      C1637   1.511       .  S
C1549      C1701   1.491       .  S
C1550      C1845   1.536       .  S
O1551      C1566   1.264       .  A
O1551     Al1559   1.940       .  S
C1552      C1634   1.498       .  S
C1552      O1562   1.263       .  A
C1552      O1553   1.263       .  A
O1553     Al1555   1.929       .  S
O1554      C1556   1.268       .  A
O1554     Al1555   1.932       .  S
Al1555     O1563   1.913       .  S
Al1555     O1565   1.915       .  S
Al1555     O1564   1.793       .  S
C1556      C1954   1.489       .  S
C1556      O1569   1.262       .  A
O1557      C1567   1.265       .  A
O1557     Al1559   1.941       .  S
O1558      C1571   1.269       .  A
O1558     Al1568   1.943       .  S
Al1559     O1572   1.925       .  S
Al1559     O1569   1.909       .  S
Al1559     O1564   1.795       .  S
O1560      C1567   1.258       .  A
O1560     Al1568   1.891       .  S
O1561      C1570   1.255       .  A
O1561     Al1568   1.871       .  S
O1562     Al1568   1.927       .  S
O1563      C1570   1.263       .  A
O1564     Al1568   1.785       .  S
O1565      C1566   1.260       .  A
C1566      C1765   1.501       .  S
C1567      C1938   1.499       .  S
C1570      C1621   1.460       .  S
C1571      C1781   1.510       .  S
C1571      O1572   1.263       .  A
C1573      C1574   1.424       .  A
C1573      C1578   1.423       .  A
C1573      C1605   1.503       .  S
C1574      C1575   1.420       .  A
C1574      C1829   1.486       .  S
C1575      C1576   1.423       .  A
C1575      C1685   1.516       .  S
C1576      C1577   1.422       .  A
C1576      C1618   1.493       .  S
C1577      C1578   1.419       .  A
C1577      C1669   1.498       .  S
C1578      C1813   1.506       .  S
O1579      C1594   1.260       .  A
O1579     Al1587   1.905       .  S
C1580      C1602   1.481       .  S
C1580      O1590   1.256       .  A
C1580      O1581   1.261       .  A
O1581     Al1583   1.921       .  S
O1582      C1584   1.252       .  A
O1582     Al1583   1.875       .  S
Al1583     O1591   1.873       .  S
Al1583     O1593   1.929       .  S
Al1583     O1592   1.780       .  S
C1584      C1749   1.485       .  S
C1584      O1597   1.263       .  A
O1585      C1595   1.257       .  A
O1585     Al1587   1.874       .  S
O1586      C1599   1.258       .  A
O1586     Al1596   1.894       .  S
Al1587     O1600   1.919       .  S
Al1587     O1597   1.913       .  S
Al1587     O1592   1.790       .  S
O1588      C1595   1.261       .  A
O1588     Al1596   1.900       .  S
O1589      C1598   1.258       .  A
O1589     Al1596   1.885       .  S
O1590     Al1596   1.894       .  S
O1591      C1598   1.255       .  A
O1592     Al1596   1.779       .  S
O1593      C1594   1.267       .  A
C1594      C1893   1.486       .  S
C1595      C1733   1.452       .  S
C1598      C1653   1.447       .  S
C1599      C1909   1.483       .  S
C1599      O1600   1.259       .  A
C1601      C1602   1.398       .  A
C1601      C1606   1.409       .  A
C1601      H1608   1.080       .  S
C1602      C1603   1.413       .  A
C1603      C1604   1.406       .  A
C1603      C1610   1.513       .  S
C1604      C1605   1.402       .  A
C1604      H1609   1.081       .  S
C1605      C1606   1.427       .  A
C1606      C1607   1.519       .  S
C1607      F1611   1.383       .  S
C1607      F1612   1.379       .  S
C1607      F1613   1.382       .  S
C1610      F1614   1.381       .  S
C1610      F1615   1.373       .  S
C1610      F1616   1.374       .  S
C1617      C1618   1.403       .  A
C1617      C1622   1.399       .  A
C1617      H1624   1.079       .  S
C1618      C1619   1.427       .  A
C1619      C1620   1.400       .  A
C1619      C1626   1.516       .  S
C1620      C1621   1.393       .  A
C1620      H1625   1.086       .  S
C1621      C1622   1.412       .  A
C1622      C1623   1.517       .  S
C1623      F1627   1.381       .  S
C1623      F1628   1.367       .  S
C1623      F1629   1.381       .  S
C1626      F1630   1.383       .  S
C1626      F1631   1.375       .  S
C1626      F1632   1.384       .  S
C1633      C1634   1.406       .  A
C1633      C1638   1.412       .  A
C1633      H1640   1.082       .  S
C1634      C1635   1.411       .  A
C1635      C1636   1.415       .  A
C1635      C1642   1.513       .  S
C1636      C1637   1.410       .  A
C1636      H1641   1.080   1_565  S
C1637      C1638   1.421       .  A
C1638      C1639   1.518       .  S
C1639      F1643   1.382       .  S
C1639      F1645   1.380       .  S
C1642      F1646   1.381       .  S
C1642      F1647   1.382       .  S
C1642      F1648   1.385   1_565  S
C1649      C1650   1.402       .  A
C1649      C1654   1.395       .  A
C1649      H1656   1.083       .  S
C1650      C1651   1.427       .  A
C1651      C1652   1.397       .  A
C1651      C1658   1.519       .  S
C1652      C1653   1.392       .  A
C1652      H1657   1.086       .  S
C1653      C1654   1.409       .  A
C1654      C1655   1.517       .  S
C1655      F1659   1.383       .  S
C1655      F1660   1.381       .  S
C1655      F1661   1.371       .  S
C1658      F1663   1.380       .  S
C1658      F1664   1.379       .  S
C1665      C1666   1.398       .  A
C1665      C1670   1.403       .  A
C1665      H1672   1.079       .  S
C1666      C1667   1.409       .  A
C1667      C1668   1.404       .  A
C1667      C1674   1.511       .  S
C1668      C1669   1.404       .  A
C1668      H1673   1.071       .  S
C1669      C1670   1.423       .  A
C1670      C1671   1.520       .  S
C1671      F1675   1.382       .  S
C1671      F1676   1.380       .  S
C1671      F1677   1.383       .  S
C1674      F1678   1.373       .  S
C1674      F1679   1.382       .  S
C1674      F1680   1.385       .  S
C1681      C1682   1.413       .  A
C1681      C1686   1.419       .  A
C1681      H1688   1.084       .  S
C1682      C1683   1.429       .  A
C1683      C1684   1.413       .  A
C1683      C1690   1.515       .  S
C1684      C1685   1.403       .  A
C1684      H1689   1.082       .  S
C1685      C1686   1.423       .  A
C1686      C1687   1.513       .  S
C1687      F1691   1.383       .  S
C1687      F1692   1.380       .  S
C1687      F1693   1.383       .  S
C1690      F1694   1.379       .  S
C1690      F1695   1.383       .  S
C1690      F1696   1.385       .  S
C1697      C1698   1.404       .  A
C1697      C1702   1.403       .  A
C1697      H1704   1.080       .  S
C1698      C1699   1.411       .  A
C1699      C1700   1.400       .  A
C1699      C1706   1.519       .  S
C1700      C1701   1.406       .  A
C1700      H1705   1.073       .  S
C1701      C1702   1.416       .  A
C1702      C1703   1.514   1_565  S
C1703      F1707   1.382   1_545  S
C1703      F1708   1.383       .  S
C1703      F1709   1.379       .  S
C1706      F1710   1.383       .  S
C1706      F1711   1.375       .  S
C1706      F1712   1.384       .  S
C1713      C1714   1.409       .  A
C1713      C1718   1.412       .  A
C1713      H1720   1.083       .  S
C1714      C1715   1.418       .  A
C1715      C1716   1.399       .  A
C1715      C1722   1.520       .  S
C1716      C1717   1.399       .  A
C1716      H1721   1.080       .  S
C1717      C1718   1.419       .  A
C1718      C1719   1.515   1_565  S
C1719      F1723   1.383       .  S
C1719      F1724   1.380       .  S
C1722      F1726   1.376       .  S
C1722      F1727   1.384       .  S
C1722      F1728   1.385       .  S
C1729      C1730   1.405       .  A
C1729      C1734   1.404       .  A
C1729      H1736   1.083       .  S
C1730      C1731   1.428   1_556  A
C1731      C1732   1.388   1_554  A
C1731      C1738   1.522       .  S
C1732      C1733   1.389       .  A
C1732      H1737   1.085   1_556  S
C1733      C1734   1.411       .  A
C1734      C1735   1.516       .  S
C1735      F1739   1.384       .  S
C1735      F1740   1.382       .  S
C1735      F1741   1.383       .  S
C1738      F1742   1.375       .  S
C1738      F1743   1.384       .  S
C1738      F1744   1.378       .  S
C1745      C1746   1.401       .  A
C1745      C1750   1.402       .  A
C1745      H1752   1.083       .  S
C1746      C1747   1.422   1_556  A
C1747      C1748   1.398       .  A
C1748      C1749   1.402   1_554  A
C1749      C1750   1.423       .  A
C1750      C1751   1.518       .  S
C1751      F1755   1.385       .  S
C1751      F1756   1.382       .  S
C1751      F1757   1.383       .  S
C1754      F1758   1.382       .  S
C1754      F1759   1.375       .  S
C1754      F1760   1.386       .  S
C1761      C1762   1.405       .  A
C1761      C1766   1.410       .  A
C1761      H1768   1.084       .  S
C1762      C1763   1.431       .  A
C1763      C1764   1.417       .  A
C1763      C1770   1.510       .  S
C1764      C1765   1.400       .  A
C1764      H1769   1.084       .  S
C1765      C1766   1.416       .  A
C1766      C1767   1.506       .  S
C1767      F1771   1.385       .  S
C1767      F1772   1.381       .  S
C1767      F1773   1.380       .  S
C1770      F1775   1.364       .  S
C1770      F1776   1.385       .  S
C1777      C1778   1.414       .  A
C1777      C1782   1.418       .  A
C1777      H1784   1.080       .  S
C1778      C1779   1.434       .  A
C1779      C1780   1.417       .  A
C1780      C1781   1.405       .  A
C1780      H1785   1.085       .  S
C1781      C1782   1.418       .  A
C1782      C1783   1.517       .  S
C1783      F1787   1.384       .  S
C1783      F1788   1.378       .  S
C1783      F1789   1.383       .  S
C1786      F1791   1.384       .  S
C1786      F1792   1.383       .  S
C1793      C3778   1.400       .  A
C1793      C1798   1.399       .  A
C1793      H1800   1.082       .  S
C1794      C3777   1.400   1_455  A
C1794      C1795   1.422       .  A
C1794      C3504   1.485   1_455  S
C1795      C1796   1.392       .  A
C1795      C1802   1.515       .  S
C1796      C1797   1.392       .  A
C1796      H1801   1.077       .  S
C1797      C3782   1.424   1_455  A
C1798      C3781   1.424       .  A
C1798      C1799   1.521       .  S
C1799      F1803   1.383       .  S
C1799      F1804   1.369       .  S
C1799      F1805   1.382       .  S
C1802      F1806   1.382       .  S
C1802      F1807   1.377       .  S
C1802      F1808   1.384       .  S
C1809      C1810   1.409       .  A
C1809      C1814   1.414       .  A
C1809      H1816   1.084       .  S
C1810      C1811   1.414       .  A
C1811      C1812   1.404       .  A
C1811      C1818   1.518       .  S
C1812      C1813   1.407       .  A
C1812      H1817   1.079       .  S
C1813      C1814   1.420       .  A
C1814      C1815   1.513       .  S
C1815      F1819   1.383       .  S
C1815      F1820   1.381       .  S
C1815      F1821   1.383       .  S
C1818      F1822   1.383       .  S
C1818      F1823   1.377       .  S
C1818      F1824   1.385       .  S
C1825      C1826   1.398       .  A
C1825      C1830   1.400       .  A
C1825      H1832   1.083       .  S
C1826      C1827   1.414       .  A
C1827      C1828   1.406       .  A
C1827      C1834   1.514       .  S
C1828      C1829   1.402       .  A
C1828      H1833   1.079       .  S
C1829      C1830   1.422       .  A
C1830      C1831   1.520       .  S
C1831      F1835   1.383       .  S
C1831      F1836   1.378       .  S
C1831      F1837   1.384       .  S
C1834      F1838   1.384       .  S
C1834      F1839   1.382       .  S
C1834      F1840   1.385       .  S
C1841      C1842   1.400       .  A
C1841      C1846   1.414       .  A
C1841      H1848   1.085       .  S
C1842      C1843   1.419       .  A
C1843      C1844   1.421       .  A
C1843      C1850   1.516       .  S
C1844      C1845   1.413       .  A
C1844      H1849   1.082       .  S
C1845      C1846   1.434       .  A
C1847      F1851   1.383   1_545  S
C1847      F1852   1.371   1_545  S
C1850      F1854   1.382       .  S
C1850      F1855   1.381       .  S
C1850      F1856   1.384       .  S
C1857      C1858   1.400       .  A
C1857      C1862   1.409       .  A
C1857      H1864   1.085       .  S
C1858      C1859   1.415       .  A
C1859      C1860   1.405       .  A
C1859      C1866   1.512       .  S
C1860      C1861   1.406       .  A
C1860      H1865   1.084       .  S
C1861      C1862   1.428       .  A
C1862      C1863   1.512       .  S
C1863      F1867   1.383       .  S
C1863      F1868   1.385       .  S
C1863      F1869   1.368       .  S
C1866      F1870   1.373       .  S
C1866      F1871   1.383       .  S
C1866      F1872   1.385       .  S
C1873      C1874   1.413       .  A
C1873      C1878   1.419       .  A
C1873      H1880   1.083       .  S
C1874      C3859   1.421       .  A
C1875      C3858   1.421   1_655  A
C1875      C1876   1.408       .  A
C1875      C1882   1.509       .  S
C1876      C1877   1.402   1_655  A
C1876      H1881   1.078       .  S
C1877      C3862   1.420       .  A
C1878      C3861   1.415       .  A
C1878      C1879   1.511       .  S
C1879      F1883   1.384       .  S
C1879      F1884   1.379       .  S
C1879      F1885   1.381       .  S
C1882      F1886   1.379       .  S
C1882      F1887   1.382   1_655  S
C1882      F1888   1.369   1_556  S
C1889      C1890   1.409       .  A
C1889      C1894   1.408       .  A
C1889      H1896   1.076   1_556  S
C1890      C1891   1.424       .  A
C1891      C1892   1.413       .  A
C1892      C1893   1.403       .  A
C1892      H1897   1.085       .  S
C1893      C1894   1.411       .  A
C1894      C1895   1.518   1_556  S
C1895      F1899   1.384       .  S
C1895      F1900   1.383       .  S
C1895      F1901   1.382       .  S
C1898      F1902   1.383       .  S
C1898      F1903   1.376       .  S
C1898      F1904   1.383   1_565  S
C1905      C1906   1.406       .  A
C1905      C1910   1.406       .  A
C1906      C1907   1.424       .  A
C1907      C1908   1.405       .  A
C1907      C1914   1.508       .  S
C1908      C1909   1.398       .  A
C1908      H1913   1.086       .  S
C1909      C1910   1.416       .  A
C1911      F1915   1.384       .  S
C1911      F1916   1.383       .  S
C1914      F1918   1.384       .  S
C1914      F1919   1.368       .  S
C1914      F1920   1.382       .  S
C1921      C3906   1.399   1_455  A
C1921      C1926   1.411       .  A
C1921      H1928   1.084       .  S
C1922      C3905   1.396       .  A
C1922      C1923   1.407       .  A
C1923      C1924   1.399       .  A
C1923      C1930   1.512       .  S
C1924      C1925   1.402       .  A
C1924      H1929   1.080       .  S
C1925      C3910   1.428       .  A
C1926      C3909   1.429   1_455  A
C1927      F1931   1.382   1_455  S
C1927      F3916   1.381   1_455  S
C1927      F1933   1.382       .  S
C1930      F1934   1.380       .  S
C1930      F3919   1.366       .  S
C1930      F1936   1.380       .  S
F1932      C3911   1.380       .  S
F1935      C3914   1.367       .  S
C1937      C1938   1.408       .  A
C1937      C1942   1.409       .  A
C1937      H1944   1.083       .  S
C1938      C1939   1.420       .  A
C1939      C1940   1.408       .  A
C1939      C1946   1.516       .  S
C1940      C1941   1.404       .  A
C1940      H1945   1.080       .  S
C1941      C1942   1.420       .  A
C1943      F1949   1.373       .  S
C1946      F1950   1.383       .  S
C1946      F1951   1.381       .  S
C1946      F1952   1.385       .  S
C1953      C1954   1.407       .  A
C1953      C1958   1.412       .  A
C1953      H1960   1.082       .  S
C1954      C1955   1.421       .  A
C1955      C1956   1.404       .  A
C1956      C1957   1.402       .  A
C1957      C1958   1.419       .  A
C1958      C1959   1.515       .  S
C1959      F1963   1.383   1_565  S
C1959      F1964   1.383       .  S
C1959      F1965   1.380   1_565  S
C1962      F1966   1.377       .  S
C1962      F1968   1.384       .  S
C1969      C1970   1.407       .  A
C1969      C1974   1.410       .  A
C1969      H1976   1.079       .  S
C1970      C3955   1.413       .  A
C1970      C3473   1.496       .  S
C1971      C3954   1.413       .  A
C1971      C1972   1.402       .  A
C1971      C1978   1.515       .  S
C1972      C3957   1.402       .  A
C1972      H1977   1.081       .  S
C1973      C3956   1.406       .  A
C1973      C1974   1.411       .  A
C1974      C1975   1.513       .  S
C1975      F1979   1.384   1_565  S
C1975      F1980   1.383       .  S
C1975      F1981   1.378       .  S
C1978      F1982   1.376       .  S
C1978      F1983   1.378       .  S
C1978      F1984   1.382   1_455  S
C1985      C1990   1.423       .  A
C1986      C3475   1.417   1_554  A
C1986      C2437   1.497       .  S
C1987      C3474   1.419   1_545  A
C1987      C1988   1.432       .  A
C1987      C2386   1.511       .  S
C1988      C2421   1.497       .  S
C1989      C3478   1.423   1_545  A
C1989      C2402   1.505       .  S
C1990      C3477   1.424   1_554  A
C1990      C2453   1.500       .  S
O1991      C2006   1.264       .  A
O1991     Al1999   1.927   1_655  S
C1992      C2373   1.504       .  S
C1992      O2002   1.258       .  A
O1993     Al1995   1.955       .  S
O1994      C1996   1.258       .  A
O1994     Al1995   1.883       .  S
Al1995     O2003   1.885       .  S
Al1995     O2005   1.940       .  S
C1996      C2322   1.467       .  S
C1996      O2009   1.262       .  A
O1997      C2007   1.262       .  A
O1998      C2011   1.260       .  A
O1998     Al2008   1.898       .  S
Al1999     O2009   1.912   1_455  S
O2000      C2007   1.265       .  A
O2000     Al2008   1.917       .  S
O2001     Al2008   1.931       .  S
O2002     Al2008   1.918       .  S
O2003      C2010   1.257       .  A
O2004     Al2008   1.786       .  S
O2005      C2006   1.268       .  A
C2006      C2338   1.504       .  S
C2007      C2306   1.490       .  S
C2010      C2418   1.471       .  S
C2011      C2354   1.493       .  S
C2011      O2012   1.259       .  A
C2013      C2014   1.426       .  A
C2013      C2370   1.531       .  S
C2014      C2511   1.427       .  A
C2014      C2242   1.481       .  S
C2015      C2510   1.430       .  A
C2015      C2016   1.438       .  A
C2015      C2274   1.536       .  S
C2017      C2514   1.417       .  A
C2017      C2258   1.523       .  S
C2018      C2513   1.419       .  A
C2018      C2226   1.479       .  S
O2019      C2034   1.255       .  A
O2019     Al2027   1.890       .  S
C2020      C2469   1.486       .  S
C2020      O2030   1.267       .  A
O2021     Al2023   1.904       .  S
O2022      C2024   1.263       .  A
O2022     Al2023   1.906       .  S
Al2023     O2031   1.906       .  S
Al2023     O2033   1.910       .  S
C2024      C2210   1.493       .  S
C2024      O2037   1.262       .  A
O2025      C2035   1.255       .  A
O2026      C2039   1.265       .  A
O2026     Al2036   1.927       .  S
Al2027     O2037   1.909       .  S
O2028      C2035   1.257       .  A
O2028     Al2036   1.890       .  S
O2029     Al2036   1.871       .  S
O2030     Al2036   1.936       .  S
O2031      C2038   1.266       .  A
O2032     Al2036   1.781   1_455  S
O2033      C2034   1.258       .  A
C2034      C2162   1.468       .  S
C2035      C2194   1.459       .  S
C2038      C2293   1.467       .  S
C2039      C2178   1.515       .  S
C2039      O2040   1.262       .  A
C2041      C2042   1.427       .  A
C2041      C2046   1.424       .  A
C2041      C2146   1.478       .  S
C2042      C3035   1.422   1_545  A
C2042      C2357   1.514       .  S
C2043      C3034   1.426       .  A
C2043      C2044   1.425       .  A
C2043      C2213   1.497       .  S
C2044      C2045   1.429       .  A
C2044      C2133   1.518       .  S
C2045      C3038   1.419       .  A
C2045      C2197   1.473       .  S
C2046      C3037   1.421   1_545  A
C2046      C2341   1.535       .  S
O2047      C2062   1.263       .  A
O2047     Al2055   1.938       .  S
C2048      C2130   1.498       .  S
C2048      O2058   1.263       .  A
C2048      O2049   1.263       .  A
O2049     Al2051   1.924       .  S
O2050      C2052   1.267       .  A
O2050     Al2051   1.926       .  S
Al2051     O2059   1.900       .  S
Al2051     O2061   1.911       .  S
Al2051     O2060   1.790       .  S
C2052      C2450   1.485       .  S
C2052      O2065   1.263       .  A
O2053      C2063   1.264       .  A
O2053     Al2055   1.935       .  S
O2054      C2067   1.268       .  A
O2054     Al2064   1.936       .  S
Al2055     O2068   1.924       .  S
Al2055     O2065   1.908       .  S
Al2055     O2060   1.797       .  S
O2056      C2063   1.258       .  A
O2056     Al2064   1.887       .  S
O2057      C2066   1.256       .  A
O2057     Al2064   1.874       .  S
O2058     Al2064   1.930       .  S
O2059      C2066   1.260       .  A
O2060     Al2064   1.783       .  S
O2061      C2062   1.259       .  A
C2062      C2261   1.496       .  S
C2063      C2434   1.489       .  S
C2066      C2117   1.455       .  S
C2067      C2277   1.505       .  S
C2067      O2068   1.263       .  A
C2069      C2070   1.423       .  A
C2069      C2074   1.421       .  A
C2069      C2101   1.499       .  S
C2070      C2071   1.416       .  A
C2070      C2325   1.481       .  S
C2071      C2072   1.419       .  A
C2071      C2181   1.516       .  S
C2072      C2073   1.418       .  A
C2072      C2114   1.483       .  S
C2073      C2074   1.414       .  A
C2073      C2165   1.492       .  S
C2074      C2309   1.504       .  S
O2075      C2090   1.261       .  A
O2075     Al2083   1.903       .  S
C2076      C2098   1.476       .  S
C2076      O2086   1.255       .  A
C2076      O2077   1.261       .  A
O2077     Al2079   1.915       .  S
O2078      C2080   1.249       .  A
O2078     Al2079   1.871       .  S
Al2079     O2087   1.880       .  S
Al2079     O2089   1.937       .  S
Al2079     O2088   1.783       .  S
C2080      C2245   1.482       .  S
C2080      O2093   1.261       .  A
O2081      C2091   1.258       .  A
O2081     Al2083   1.877       .  S
O2082      C2095   1.259       .  A
O2082     Al2092   1.899       .  S
Al2083     O2096   1.920       .  S
Al2083     O2093   1.908       .  S
Al2083     O2088   1.792       .  S
O2084      C2091   1.264       .  A
O2084     Al2092   1.915       .  S
O2085      C2094   1.260       .  A
O2085     Al2092   1.897       .  S
O2086     Al2092   1.886       .  S
O2087      C2094   1.256       .  A
O2088     Al2092   1.780       .  S
O2089      C2090   1.270       .  A
C2090      C2389   1.486       .  S
C2091      C2229   1.459       .  S
C2094      C2149   1.457       .  S
C2095      C2405   1.486       .  S
C2095      O2096   1.259       .  A
C2097      C2098   1.396       .  A
C2097      C2102   1.406       .  A
C2097      H2104   1.082       .  S
C2098      C2099   1.414       .  A
C2099      C2100   1.405       .  A
C2099      C2106   1.513       .  S
C2100      C2101   1.402       .  A
C2100      H2105   1.082       .  S
C2101      C2102   1.427       .  A
C2102      C2103   1.518       .  S
C2103      F2107   1.383       .  S
C2103      F2108   1.378       .  S
C2103      F2109   1.383       .  S
C2106      F2110   1.380       .  S
C2106      F2111   1.372       .  S
C2106      F2112   1.378       .  S
C2113      C2114   1.401       .  A
C2113      C2118   1.398       .  A
C2113      H2120   1.082       .  S
C2114      C2115   1.426       .  A
C2115      C2116   1.398       .  A
C2115      C2122   1.518       .  S
C2116      C2117   1.392       .  A
C2116      H2121   1.086       .  S
C2117      C2118   1.410       .  A
C2118      C2119   1.513       .  S
C2119      F2123   1.381       .  S
C2119      F2124   1.369       .  S
C2119      F2125   1.380       .  S
C2122      F2126   1.381       .  S
C2122      F2127   1.374       .  S
C2122      F2128   1.384       .  S
C2129      C2130   1.404       .  A
C2129      C2134   1.412       .  A
C2129      H2136   1.084       .  S
C2130      C2131   1.411       .  A
C2131      C2132   1.416       .  A
C2131      C2138   1.512       .  S
C2132      C2133   1.411       .  A
C2132      H2137   1.078       .  S
C2133      C2134   1.425       .  A
C2134      C2135   1.517       .  S
C2135      F2139   1.383       .  S
C2135      F3132   1.382       .  S
C2135      F2141   1.378       .  S
C2138      F2142   1.383       .  S
C2138      F2143   1.381       .  S
C2138      F2144   1.384       .  S
F2140      C3127   1.383       .  S
C2145      C2146   1.399       .  A
C2145      C2150   1.395       .  A
C2145      H2152   1.085       .  S
C2146      C2147   1.425       .  A
C2147      C2148   1.396       .  A
C2147      C2154   1.518   1_545  S
C2148      C2149   1.393       .  A
C2148      H2153   1.086       .  S
C2149      C2150   1.421       .  A
C2150      C2151   1.518       .  S
C2151      F2155   1.376       .  S
C2151      F2156   1.374       .  S
C2151      F2157   1.381       .  S
C2154      F3150   1.383       .  S
C2154      F2159   1.380       .  S
C2154      F2160   1.382       .  S
F2158      C3146   1.382       .  S
C2161      C2162   1.399       .  A
C2161      C2166   1.403       .  A
C2161      H2168   1.081       .  S
C2162      C2163   1.413       .  A
C2163      C2164   1.403       .  A
C2163      C2170   1.518       .  S
C2164      C2165   1.404       .  A
C2164      H2169   1.076       .  S
C2165      C2166   1.422       .  A
C2166      C2167   1.521       .  S
C2167      F2171   1.383       .  S
C2167      F2172   1.379       .  S
C2167      F2173   1.383       .  S
C2170      F2174   1.380       .  S
C2170      F2175   1.382       .  S
C2170      F2176   1.383       .  S
C2177      C2178   1.412       .  A
C2177      C2182   1.416       .  A
C2177      H2184   1.084       .  S
C2178      C2179   1.426       .  A
C2179      C2180   1.411       .  A
C2179      C2186   1.520       .  S
C2180      C2181   1.405       .  A
C2180      H2185   1.081       .  S
C2181      C2182   1.422       .  A
C2182      C2183   1.512       .  S
C2183      F2187   1.382       .  S
C2183      F2188   1.379       .  S
C2183      F2189   1.383       .  S
C2186      F2190   1.375       .  S
C2186      F2191   1.383       .  S
C2186      F2192   1.385       .  S
C2193      C2194   1.399       .  A
C2193      C2198   1.402       .  A
C2193      H2200   1.080       .  S
C2194      C2195   1.405       .  A
C2195      C2196   1.392       .  A
C2195      C2202   1.511       .  S
C2196      C2197   1.401       .  A
C2196      H2201   1.080       .  S
C2197      C2198   1.416       .  A
C2198      C2199   1.514       .  S
C2199      F2203   1.383       .  S
C2199      F2204   1.383       .  S
C2199      F2205   1.376       .  S
C2202      F2206   1.383       .  S
C2202      F2207   1.379       .  S
C2202      F2208   1.385       .  S
C2209      C2210   1.410       .  A
C2209      C2214   1.411       .  A
C2209      H2216   1.083       .  S
C2210      C2211   1.420       .  A
C2211      C2212   1.400       .  A
C2211      C2218   1.522       .  S
C2212      C2213   1.399       .  A
C2212      H2217   1.073       .  S
C2213      C2214   1.418       .  A
C2214      C2215   1.515       .  S
C2215      F2219   1.383       .  S
C2215      F2220   1.381       .  S
C2215      F3213   1.383       .  S
C2218      F2222   1.379       .  S
C2218      F2223   1.383       .  S
C2218      F2224   1.385       .  S
F2221      C3207   1.383       .  S
C2225      C2226   1.406       .  A
C2225      C2230   1.408       .  A
C2225      H2232   1.083       .  S
C2226      C2227   1.427       .  A
C2227      C2228   1.390       .  A
C2227      C2234   1.521       .  S
C2228      C2229   1.390       .  A
C2228      H2233   1.085       .  S
C2229      C2230   1.412       .  A
C2230      C2231   1.515       .  S
C2231      F2235   1.384       .  S
C2231      F2236   1.382       .  S
C2231      F2237   1.383       .  S
C2234      F2238   1.376       .  S
C2234      F2239   1.384       .  S
C2234      F2240   1.377       .  S
C2241      C2242   1.401       .  A
C2241      C2246   1.403       .  A
C2241      H2248   1.083       .  S
C2242      C2243   1.422       .  A
C2243      C2244   1.396       .  A
C2243      C2746   1.520       .  S
C2244      C2245   1.400       .  A
C2244      H2745   1.084       .  S
C2245      C2246   1.423       .  A
C2246      C2247   1.518       .  S
C2247      F2251   1.385       .  S
C2247      F2252   1.383       .  S
C2247      F2253   1.383       .  S
H2249      C2740   1.084       .  S
C2250      C2739   1.520       .  S
C2250      F2254   1.382       .  S
C2250      F2255   1.375       .  S
C2250      F2256   1.385       .  S
C2257      C2258   1.405       .  A
C2257      C2262   1.407       .  A
C2257      H2264   1.084       .  S
C2258      C2259   1.431       .  A
C2259      C2260   1.416       .  A
C2259      C2266   1.508       .  S
C2260      C2261   1.400       .  A
C2260      H2265   1.084       .  S
C2261      C2262   1.414       .  A
C2262      C2263   1.505       .  S
C2263      F2267   1.385   1_554  S
C2263      F2268   1.380   1_554  S
C2263      F2269   1.382       .  S
C2266      F2766   1.382       .  S
C2266      F2271   1.365       .  S
C2266      F2272   1.385       .  S
F2270      C2762   1.381       .  S
C2273      C2274   1.416       .  A
C2273      C2278   1.420       .  A
C2273      H2280   1.080   1_554  S
C2274      C2275   1.433       .  A
C2275      C2276   1.412       .  A
C2275      C2778   1.511       .  S
C2276      C2277   1.401       .  A
C2276      H2281   1.085       .  S
C2277      C2278   1.417       .  A
C2278      C2279   1.516   1_554  S
C2279      F2283   1.385       .  S
C2279      F2284   1.379       .  S
C2279      F2285   1.383       .  S
C2282      C2771   1.506       .  S
C2282      F2782   1.365       .  S
C2282      F2287   1.384       .  S
C2282      F2288   1.383       .  S
F2286      C2778   1.368       .  S
C2289      C2294   1.398       .  A
C2289      H2296   1.082       .  S
C2290      C2291   1.425       .  A
C2291      C2292   1.395       .  A
C2291      C2298   1.515       .  S
C2292      C2293   1.393       .  A
C2292      H2297   1.081       .  S
C2294      C2295   1.517       .  S
C2295      F2299   1.381       .  S
C2295      F2300   1.369       .  S
C2295      F2301   1.382       .  S
C2298      F2302   1.382       .  S
C2298      F2303   1.376       .  S
C2298      F2304   1.384       .  S
C2305      C2306   1.409       .  A
C2305      C2310   1.412       .  A
C2305      H2312   1.084       .  S
C2306      C2307   1.415       .  A
C2307      C2308   1.405       .  A
C2307      C2314   1.518       .  S
C2308      C2309   1.406       .  A
C2308      H2313   1.079       .  S
C2309      C2310   1.419       .  A
C2310      C2311   1.513       .  S
C2311      F2315   1.383       .  S
C2311      F2316   1.381       .  S
C2311      F2317   1.382       .  S
C2314      F2318   1.383       .  S
C2314      F2319   1.377       .  S
C2314      F2320   1.385       .  S
C2321      C2322   1.396       .  A
C2321      C2326   1.398       .  A
C2321      H2328   1.081       .  S
C2322      C2323   1.412       .  A
C2323      C2324   1.402       .  A
C2323      C2330   1.514       .  S
C2324      C2325   1.401       .  A
C2324      H2329   1.076       .  S
C2325      C2326   1.421       .  A
C2326      C2327   1.520       .  S
C2327      F2331   1.384       .  S
C2327      F2332   1.377       .  S
C2327      F2333   1.383       .  S
C2330      F2334   1.384       .  S
C2330      F2335   1.383       .  S
C2330      F2336   1.385       .  S
C2337      C2338   1.399       .  A
C2337      C2342   1.414       .  A
C2337      H2344   1.085       .  S
C2338      C2339   1.418       .  A
C2339      C2340   1.421       .  A
C2339      C2346   1.515       .  S
C2340      C2341   1.413       .  A
C2340      H2345   1.078       .  S
C2341      C2342   1.430       .  A
C2342      C3335   1.507       .  S
C2343      C3334   1.507       .  S
C2343      F2347   1.384       .  S
C2343      F2348   1.371       .  S
C2343      F3341   1.383       .  S
C2346      F2350   1.383       .  S
C2346      F2351   1.379       .  S
C2346      F2352   1.385       .  S
F2349      C3335   1.383       .  S
C2353      C2354   1.396       .  A
C2353      C2358   1.406       .  A
C2353      H2360   1.085       .  S
C2354      C2355   1.418       .  A
C2355      C2356   1.412       .  A
C2355      C2362   1.512       .  S
C2356      C2357   1.408       .  A
C2356      H2361   1.083       .  S
C2357      C2358   1.430       .  A
C2358      C2359   1.509       .  S
C2359      F2363   1.383   1_545  S
C2359      F2364   1.385       .  S
C2359      F2365   1.360   1_545  S
C2362      F2366   1.377       .  S
C2362      F2367   1.383       .  S
C2362      F2368   1.385       .  S
C2369      C2370   1.413   1_455  A
C2369      C2374   1.423       .  A
C2369      H2376   1.082       .  S
C2371      C2372   1.409       .  A
C2371      C2378   1.510       .  S
C2372      C2373   1.402       .  A
C2372      H2377   1.078       .  S
C2374      C2375   1.510       .  S
C2375      F2379   1.384       .  S
C2375      F2380   1.378   1_455  S
C2375      F2381   1.379       .  S
C2378      F2382   1.380       .  S
C2378      F2383   1.383       .  S
C2378      F2384   1.370       .  S
C2385      C2386   1.409       .  A
C2385      C2390   1.408       .  A
C2385      H2392   1.079       .  S
C2386      C2387   1.423       .  A
C2387      C2388   1.413       .  A
C2387      C3386   1.511   1_545  S
C2388      C2389   1.402       .  A
C2388      H2393   1.085       .  S
C2389      C2390   1.412       .  A
C2390      C2391   1.517       .  S
C2391      F2395   1.385       .  S
C2391      F2396   1.383       .  S
C2391      F2397   1.380       .  S
C2394      C3379   1.513       .  S
C2394      F2398   1.383       .  S
C2394      F2399   1.375       .  S
C2394      F2400   1.383       .  S
C2401      C2402   1.406       .  A
C2401      C2406   1.407       .  A
C2401      H2904   1.083       .  S
C2402      C2403   1.425       .  A
C2403      C2404   1.406       .  A
C2403      C2410   1.507   1_545  S
C2404      C2405   1.398       .  A
C2404      H2409   1.085       .  S
C2405      C2406   1.417       .  A
C2406      C2903   1.514       .  S
C2407      C2902   1.513   1_554  S
C2407      F2411   1.385       .  S
C2407      F2412   1.382   1_554  S
C2407      F2909   1.383       .  S
H2408      C2897   1.083   1_554  S
C2410      F2414   1.384   1_565  S
C2410      F2415   1.367       .  S
C2410      F2416   1.383       .  S
F2413      C2903   1.383       .  S
C2417      C2422   1.411       .  A
C2417      H2424   1.084       .  S
C2418      C2419   1.407       .  A
C2419      C2420   1.397       .  A
C2419      C2426   1.511       .  S
C2420      C2421   1.399       .  A
C2420      H2425   1.080       .  S
C2422      C3415   1.518   1_545  S
C2423      C3414   1.516       .  S
C2423      F2427   1.383       .  S
C2423      F2429   1.382       .  S
C2426      F2430   1.380       .  S
C2426      F2432   1.379       .  S
C2433      C2434   1.403       .  A
C2433      C2438   1.406       .  A
C2433      H2440   1.081       .  S
C2434      C2435   1.417       .  A
C2435      C2436   1.406   1_554  A
C2435      C2442   1.516   1_554  S
C2436      C2437   1.405   1_556  A
C2436      H2441   1.080       .  S
C2437      C2438   1.420       .  A
C2438      C3431   1.514       .  S
C2439      C3430   1.514       .  S
C2439      F2939   1.384       .  S
C2439      F2940   1.383   1_565  S
C2439      F2445   1.372   1_565  S
C2442      F2446   1.382       .  S
C2442      F2447   1.380   1_556  S
C2442      F2448   1.385       .  S
F2443      C2935   1.383       .  S
F2444      C2935   1.383   1_545  S
C2449      C2450   1.408       .  A
C2449      C2454   1.413       .  A
C2449      H2456   1.085       .  S
C2450      C2451   1.420   1_554  A
C2451      C2452   1.401       .  A
C2451      C2954   1.519       .  S
C2452      C2453   1.400   1_556  A
C2452      H2953   1.081       .  S
C2453      C2454   1.420       .  A
C2454      C2455   1.515       .  S
C2455      F2459   1.383       .  S
C2455      F2460   1.383       .  S
C2455      F2461   1.380       .  S
H2457      C2948   1.078       .  S
C2458      C2947   1.522       .  S
C2458      F2462   1.373       .  S
C2458      F2959   1.382       .  S
C2458      F2464   1.383       .  S
F2463      C2954   1.382       .  S
C2465      C2466   1.409       .  A
C2465      C2470   1.411       .  A
C2465      H2472   1.079       .  S
C2467      C2468   1.404       .  A
C2467      C2474   1.515       .  S
C2468      H2473   1.080       .  S
C2469      C2470   1.410       .  A
C2470      C2471   1.511       .  S
C2471      F2475   1.385       .  S
C2471      F2476   1.384   1_655  S
C2471      F2477   1.379       .  S
C2474      F2478   1.376       .  S
C2474      F2479   1.378   1_554  S
C2474      F2480   1.383       .  S
C2481      C2486   1.425       .  A
C2482      C2979   1.416       .  A
C2482      C2933   1.496       .  S
C2483      C2978   1.419   1_546  A
C2483      C2484   1.430       .  A
C2483      C2882   1.506       .  S
C2484      C2917   1.499       .  S
C2485      C2982   1.422   1_545  A
C2485      C2898   1.504       .  S
C2486      C2981   1.422       .  A
C2486      C2949   1.504       .  S
O2487      C2502   1.263       .  A
O2487     Al2495   1.919   1_655  S
C2488      C2869   1.510       .  S
C2488      O2498   1.257       .  A
O2489     Al2491   1.951       .  S
O2490      C2492   1.259       .  A
O2490     Al2491   1.890       .  S
Al2491     O2499   1.890       .  S
Al2491     O2501   1.938       .  S
C2492      C2818   1.463       .  S
C2492      O2505   1.262       .  A
O2493      C2503   1.261       .  A
O2494      C2507   1.259       .  A
O2494     Al2504   1.898       .  S
Al2495     O2505   1.910   1_455  S
O2496      C2503   1.266       .  A
O2496     Al2504   1.912       .  S
O2497     Al2504   1.929       .  S
O2498     Al2504   1.926       .  S
O2499      C2506   1.258       .  A
O2500     Al2504   1.784       .  S
O2501      C2502   1.267       .  A
C2502      C2834   1.495       .  S
C2503      C2802   1.487       .  S
C2506      C2914   1.473       .  S
C2507      C2850   1.491       .  S
C2507      O2508   1.258       .  A
C2509      C2510   1.428   1_556  A
C2509      C2866   1.527   1_655  S
C2510      C2738   1.491   1_554  S
C2511      C2512   1.434       .  A
C2511      C2770   1.538       .  S
C2513      C2754   1.528       .  S
C2514      C2722   1.478   1_554  S
O2515      C2530   1.258       .  A
O2515     Al2523   1.898       .  S
C2516      C2965   1.490       .  S
C2516      O2526   1.266   1_455  A
O2517     Al2519   1.904       .  S
O2518      C2520   1.263       .  A
O2518     Al2519   1.910       .  S
Al2519     O2527   1.898       .  S
Al2519     O2529   1.922       .  S
C2520      C2706   1.494       .  S
C2520      O2533   1.262       .  A
O2521      C2531   1.254       .  A
O2522      C2535   1.263       .  A
O2522     Al2532   1.920       .  S
Al2523     O2533   1.914       .  S
O2524      C2531   1.258       .  A
O2524     Al2532   1.894       .  S
O2525     Al2532   1.874       .  S
O2526     Al2532   1.926       .  S
O2527      C2534   1.266       .  A
O2528     Al2532   1.786   1_455  S
O2529      C2530   1.262       .  A
C2530      C2658   1.473       .  S
C2531      C2690   1.473       .  S
C2534      C2789   1.464       .  S
C2535      C2674   1.520       .  S
C2535      O2536   1.265       .  A
C2537      C2538   1.427       .  A
C2537      C2542   1.427       .  A
C2537      C2642   1.486       .  S
C2538      C3531   1.424   1_545  A
C2538      C2853   1.511       .  S
C2539      C3530   1.426       .  A
C2539      C2540   1.425       .  A
C2539      C2709   1.498       .  S
C2540      C2541   1.430       .  A
C2540      C2629   1.512       .  S
C2541      C3534   1.423       .  A
C2541      C2693   1.488       .  S
C2542      C3533   1.424   1_545  A
C2542      C2837   1.532       .  S
O2543      C2558   1.263       .  A
O2543     Al2551   1.935       .  S
C2544      C2626   1.500       .  S
C2544      O2554   1.263       .  A
C2544      O2545   1.263       .  A
O2545     Al2547   1.930       .  S
O2546      C2548   1.268       .  A
O2546     Al2547   1.932       .  S
Al2547     O2555   1.919       .  S
Al2547     O2557   1.910       .  S
Al2547     O2556   1.792       .  S
C2548      C2946   1.490       .  S
C2548      O2561   1.262       .  A
O2549      C2559   1.263       .  A
O2549     Al2551   1.931       .  S
O2550      C2563   1.268       .  A
O2550     Al2560   1.938       .  S
Al2551     O2564   1.924       .  S
Al2551     O2561   1.911       .  S
Al2551     O2556   1.798       .  S
O2552      C2559   1.258       .  A
O2552     Al2560   1.890       .  S
O2553      C2562   1.257       .  A
O2553     Al2560   1.883       .  S
O2554     Al2560   1.929       .  S
O2555      C2562   1.264       .  A
O2556     Al2560   1.782       .  S
O2557      C2558   1.260       .  A
C2558      C2757   1.496       .  S
C2559      C2930   1.489       .  S
C2562      C2613   1.469       .  S
C2563      C2773   1.504       .  S
C2563      O2564   1.263       .  A
C2565      C2566   1.425       .  A
C2565      C2570   1.425       .  A
C2565      C2597   1.520       .  S
C2566      C2567   1.421       .  A
C2566      C2821   1.479       .  S
C2567      C2568   1.424       .  A
C2567      C2677   1.514       .  S
C2568      C2569   1.422       .  A
C2568      C2610   1.503       .  S
C2569      C2570   1.422       .  A
C2569      C2661   1.496       .  S
C2570      C2805   1.499       .  S
O2571      C2586   1.258       .  A
O2571     Al2579   1.902       .  S
C2572      C2594   1.492       .  S
C2572      O2582   1.258       .  A
C2572      O2573   1.263       .  A
O2573     Al2575   1.929       .  S
O2574      C2576   1.253       .  A
O2574     Al2575   1.875       .  S
Al2575     O2583   1.878       .  S
Al2575     O2585   1.933       .  S
Al2575     O2584   1.782       .  S
C2576      C2741   1.490       .  S
C2576      O2589   1.265       .  A
O2577      C2587   1.257       .  A
O2577     Al2579   1.873       .  S
O2578      C2591   1.258       .  A
O2578     Al2588   1.897       .  S
Al2579     O2592   1.924       .  S
Al2579     O2589   1.925       .  S
Al2579     O2584   1.794       .  S
O2580      C2587   1.265       .  A
O2580     Al2588   1.914       .  S
O2581      C2590   1.261       .  A
O2581     Al2588   1.898       .  S
O2582     Al2588   1.904       .  S
O2583      C2590   1.256       .  A
O2584     Al2588   1.780       .  S
O2585      C2586   1.268       .  A
C2586      C2885   1.483       .  S
C2587      C2725   1.458       .  S
C2590      C2645   1.455       .  S
C2591      C2901   1.485       .  S
C2591      O2592   1.259       .  A
C2593      C2594   1.400       .  A
C2593      C2598   1.414       .  A
C2593      H2600   1.082       .  S
C2594      C2595   1.416       .  A
C2595      C2596   1.411       .  A
C2595      C2602   1.514       .  S
C2596      C2597   1.405       .  A
C2596      H2601   1.080       .  S
C2597      C2598   1.431       .  A
C2598      C2599   1.518       .  S
C2599      F2603   1.383       .  S
C2599      F2604   1.378       .  S
C2599      F2605   1.383       .  S
C2602      F2606   1.381       .  S
C2602      F2607   1.374       .  S
C2602      F2608   1.376       .  S
C2609      C2610   1.404       .  A
C2609      C2614   1.401       .  A
C2609      H2616   1.078       .  S
C2610      C2611   1.429       .  A
C2611      C2612   1.405       .  A
C2611      C2618   1.517       .  S
C2612      C2613   1.396       .  A
C2612      H2617   1.085       .  S
C2613      C2614   1.411       .  A
C2614      C2615   1.515       .  S
C2615      F2619   1.380       .  S
C2615      F2620   1.366       .  S
C2615      F2621   1.382       .  S
C2618      F2622   1.383       .  S
C2618      F2623   1.376       .  S
C2618      F2624   1.384       .  S
C2625      C2626   1.406       .  A
C2625      C2630   1.412       .  A
C2625      H2632   1.081       .  S
C2626      C2627   1.412       .  A
C2627      C2628   1.415       .  A
C2627      C2634   1.513       .  S
C2628      C2629   1.409       .  A
C2628      H2633   1.080       .  S
C2629      C2630   1.420       .  A
C2630      C2631   1.518       .  S
C2631      F2635   1.383       .  S
C2631      F3628   1.383       .  S
C2631      F2637   1.380       .  S
C2634      F2638   1.381       .  S
C2634      F2639   1.381       .  S
C2634      F2640   1.385       .  S
F2636      C3623   1.383       .  S
C2641      C2642   1.403       .  A
C2641      C2646   1.397       .  A
C2641      H2648   1.083       .  S
C2642      C2643   1.429       .  A
C2643      C2644   1.400       .  A
C2643      C2650   1.520   1_545  S
C2644      C2645   1.393       .  A
C2644      H2649   1.085       .  S
C2645      C2646   1.409       .  A
C2646      C2647   1.516       .  S
C2647      F2651   1.383       .  S
C2647      F2652   1.381       .  S
C2647      F2653   1.371       .  S
C2650      F3646   1.384       .  S
C2650      F2655   1.381       .  S
C2650      F2656   1.380       .  S
F2654      C3642   1.384       .  S
C2657      C2658   1.396       .  A
C2657      C2662   1.400       .  A
C2657      H2664   1.077       .  S
C2658      C2659   1.410       .  A
C2659      C2660   1.407       .  A
C2659      C2666   1.515       .  S
C2660      C2661   1.408       .  A
C2660      H2665   1.072       .  S
C2661      C2662   1.421       .  A
C2662      C2663   1.521       .  S
C2663      F2667   1.382       .  S
C2663      F2668   1.380       .  S
C2663      F2669   1.383       .  S
C2666      F2670   1.377       .  S
C2666      F2671   1.383       .  S
C2666      F2672   1.385       .  S
C2673      C2674   1.414       .  A
C2673      C2678   1.418       .  A
C2673      H2680   1.084       .  S
C2674      C2675   1.427       .  A
C2675      C2676   1.411       .  A
C2675      C2682   1.513       .  S
C2676      C2677   1.403       .  A
C2676      H2681   1.081       .  S
C2677      C2678   1.421       .  A
C2678      C2679   1.514       .  S
C2679      F2683   1.383       .  S
C2679      F2684   1.381       .  S
C2679      F2685   1.383       .  S
C2682      F2686   1.377       .  S
C2682      F2687   1.383       .  S
C2682      F2688   1.385       .  S
C2689      C2690   1.400       .  A
C2689      C2694   1.402       .  A
C2689      H2696   1.074       .  S
C2690      C2691   1.407       .  A
C2691      C2692   1.400       .  A
C2691      C2698   1.517       .  S
C2692      C2693   1.406       .  A
C2692      H2697   1.073       .  S
C2693      C2694   1.416       .  A
C2694      C2695   1.515       .  S
C2695      F2699   1.383       .  S
C2695      F2700   1.383       .  S
C2695      F2701   1.378       .  S
C2698      F2702   1.383       .  S
C2698      F2703   1.374       .  S
C2698      F2704   1.384       .  S
C2705      C2706   1.410       .  A
C2705      C2710   1.413       .  A
C2705      H2712   1.084       .  S
C2706      C2707   1.420       .  A
C2707      C2708   1.400       .  A
C2707      C2714   1.520       .  S
C2708      C2709   1.399       .  A
C2708      H2713   1.079       .  S
C2709      C2710   1.420       .  A
C2710      C2711   1.515       .  S
C2711      F2715   1.383       .  S
C2711      F2716   1.380       .  S
C2711      F3709   1.383       .  S
C2714      F2718   1.375       .  S
C2714      F2719   1.383       .  S
C2714      F2720   1.385       .  S
F2717      C3703   1.383       .  S
C2721      C2722   1.406       .  A
C2721      C2726   1.407       .  A
C2721      H2728   1.083       .  S
C2722      C2723   1.426   1_556  A
C2723      C2724   1.392   1_554  A
C2723      C2730   1.521       .  S
C2724      C2725   1.391       .  A
C2724      H2729   1.084   1_556  S
C2725      C2726   1.410       .  A
C2726      C2727   1.515       .  S
C2727      F2731   1.384       .  S
C2727      F2732   1.382       .  S
C2727      F2733   1.383       .  S
C2730      F2734   1.377       .  S
C2730      F2735   1.384       .  S
C2730      F2736   1.378       .  S
C2737      C2738   1.401       .  A
C2737      C2742   1.405       .  A
C2737      H2744   1.083       .  S
C2738      C2739   1.424   1_556  A
C2739      C2740   1.402       .  A
C2740      C2741   1.402   1_554  A
C2741      C2742   1.424       .  A
C2742      C2743   1.519       .  S
C2743      F2747   1.385       .  S
C2743      F2748   1.383       .  S
C2743      F2749   1.383       .  S
C2746      F2750   1.382       .  S
C2746      F2751   1.375       .  S
C2746      F2752   1.385       .  S
C2753      C2754   1.408       .  A
C2753      C2758   1.411       .  A
C2753      H2760   1.084       .  S
C2754      C2755   1.432       .  A
C2755      C2756   1.414       .  A
C2755      C2762   1.506       .  S
C2756      C2757   1.396       .  A
C2756      H2761   1.084       .  S
C2757      C2758   1.414       .  A
C2758      C2759   1.505       .  S
C2759      F2763   1.385       .  S
C2759      F2764   1.381       .  S
C2759      F2765   1.379       .  S
C2762      F2767   1.362       .  S
C2762      F2768   1.386       .  S
C2769      C2770   1.415       .  A
C2769      C2774   1.421       .  A
C2769      H2776   1.080       .  S
C2770      C2771   1.432       .  A
C2771      C2772   1.411       .  A
C2772      C2773   1.399       .  A
C2772      H2777   1.086       .  S
C2773      C2774   1.418       .  A
C2774      C2775   1.516       .  S
C2775      F2779   1.384       .  S
C2775      F2780   1.377       .  S
C2775      F2781   1.383       .  S
C2778      F2783   1.383       .  S
C2778      F2784   1.383       .  S
C2785      C2790   1.396       .  A
C2785      H2792   1.083       .  S
C2786      C2787   1.423       .  A
C2787      C2788   1.390       .  A
C2787      C2794   1.514       .  S
C2788      C2789   1.391       .  A
C2788      H2793   1.079       .  S
C2790      C2791   1.513       .  S
C2791      F2795   1.382       .  S
C2791      F2796   1.368       .  S
C2791      F2797   1.382       .  S
C2794      F2798   1.382       .  S
C2794      F2799   1.374       .  S
C2794      F2800   1.384       .  S
C2801      C2802   1.406       .  A
C2801      C2806   1.410       .  A
C2801      H2808   1.081       .  S
C2802      C2803   1.413       .  A
C2803      C2804   1.403       .  A
C2803      C2810   1.518       .  S
C2804      C2805   1.407       .  A
C2804      H2809   1.080       .  S
C2805      C2806   1.419       .  A
C2806      C2807   1.514       .  S
C2807      F2811   1.383       .  S
C2807      F2812   1.381       .  S
C2807      F2813   1.383       .  S
C2810      F2814   1.383       .  S
C2810      F2815   1.377       .  S
C2810      F2816   1.385       .  S
C2817      C2818   1.395       .  A
C2817      C2822   1.396       .  A
C2817      H2824   1.082       .  S
C2818      C2819   1.410       .  A
C2819      C2820   1.403       .  A
C2819      C2826   1.514       .  S
C2820      C2821   1.403       .  A
C2820      H2825   1.078       .  S
C2821      C2822   1.421       .  A
C2822      C2823   1.521       .  S
C2823      F2827   1.383       .  S
C2823      F2828   1.379       .  S
C2823      F2829   1.383       .  S
C2826      F2830   1.384       .  S
C2826      F2831   1.382       .  S
C2826      F2832   1.385       .  S
C2833      C2834   1.397       .  A
C2833      C2838   1.410       .  A
C2833      H2840   1.086       .  S
C2834      C2835   1.416       .  A
C2835      C2836   1.419       .  A
C2835      C2842   1.516       .  S
C2836      C2837   1.413       .  A
C2836      H2841   1.079       .  S
C2837      C2838   1.432       .  A
C2838      C3831   1.508       .  S
C2839      C3830   1.508       .  S
C2839      F2843   1.383       .  S
C2839      F2844   1.369       .  S
C2839      F3837   1.383       .  S
C2842      F2846   1.383       .  S
C2842      F2847   1.380       .  S
C2842      F2848   1.385       .  S
F2845      C3831   1.383       .  S
C2849      C2850   1.396       .  A
C2849      C2854   1.406       .  A
C2849      H2856   1.086       .  S
C2850      C2851   1.417       .  A
C2851      C2852   1.410       .  A
C2851      C2858   1.512       .  S
C2852      C2853   1.407       .  A
C2852      H2857   1.083       .  S
C2853      C2854   1.429       .  A
C2854      C2855   1.508       .  S
C2855      F2859   1.383   1_545  S
C2855      F2860   1.385       .  S
C2855      F2861   1.361   1_545  S
C2858      F2862   1.375       .  S
C2858      F2863   1.382       .  S
C2858      F2864   1.385       .  S
C2865      C2866   1.413       .  A
C2865      C2870   1.422       .  A
C2865      H2872   1.083       .  S
C2867      C2868   1.409       .  A
C2867      C2874   1.510       .  S
C2868      C2869   1.401       .  A
C2868      H2873   1.075       .  S
C2870      C2871   1.511       .  S
C2871      F2875   1.384       .  S
C2871      F2876   1.380       .  S
C2871      F2877   1.381       .  S
C2874      F2878   1.380       .  S
C2874      F2879   1.383       .  S
C2874      F2880   1.371   1_556  S
C2881      C2882   1.408       .  A
C2881      C2886   1.406       .  A
C2881      H2888   1.082   1_556  S
C2882      C2883   1.422       .  A
C2883      C2884   1.414       .  A
C2883      C3882   1.512   1_545  S
C2884      C2885   1.404       .  A
C2884      H2889   1.085       .  S
C2885      C2886   1.409       .  A
C2886      C2887   1.517   1_556  S
C2887      F2891   1.384       .  S
C2887      F2892   1.383       .  S
C2887      F2893   1.379   1_554  S
C2890      C3875   1.512       .  S
C2890      F2894   1.383       .  S
C2890      F2895   1.376       .  S
C2890      F2896   1.383       .  S
C2897      C2898   1.406       .  A
C2897      C2902   1.406       .  A
C2898      C2899   1.425       .  A
C2899      C2900   1.408       .  A
C2899      C2906   1.509   1_545  S
C2900      C2901   1.399       .  A
C2900      H2905   1.085       .  S
C2901      C2902   1.415       .  A
C2903      F2907   1.385       .  S
C2903      F2908   1.381       .  S
C2906      F2910   1.384       .  S
C2906      F2911   1.369       .  S
C2906      F2912   1.382       .  S
C2913      C2918   1.409       .  A
C2913      H2920   1.085       .  S
C2914      C2915   1.406       .  A
C2915      C2916   1.398       .  A
C2915      C2922   1.510       .  S
C2916      C2917   1.399       .  A
C2916      H2921   1.080       .  S
C2918      C3911   1.517   1_545  S
C2919      C3910   1.515       .  S
C2919      F2923   1.383       .  S
C2919      F2925   1.380       .  S
C2922      F2926   1.380       .  S
C2922      F2928   1.378       .  S
C2929      C2930   1.404       .  A
C2929      C2934   1.406       .  A
C2929      H2936   1.082       .  S
C2930      C2931   1.417       .  A
C2931      C2932   1.403       .  A
C2931      C2938   1.514       .  S
C2932      C2933   1.403       .  A
C2932      H2937   1.081       .  S
C2933      C2934   1.421       .  A
C2934      C3927   1.514       .  S
C2935      C3926   1.515       .  S
C2935      F2941   1.374   1_565  S
C2938      F2942   1.382       .  S
C2938      F2943   1.379       .  S
C2938      F2944   1.385       .  S
C2945      C2946   1.408       .  A
C2945      C2950   1.413       .  A
C2945      H2952   1.082       .  S
C2946      C2947   1.422       .  A
C2947      C2948   1.405       .  A
C2948      C2949   1.402       .  A
C2949      C2950   1.419       .  A
C2950      C2951   1.515       .  S
C2951      F2955   1.383       .  S
C2951      F2956   1.383       .  S
C2951      F2957   1.380       .  S
C2954      F2958   1.374       .  S
C2954      F2960   1.383       .  S
C2961      C2962   1.406   1_655  A
C2961      C2966   1.408       .  A
C2961      H2968   1.077       .  S
C2963      C2964   1.406       .  A
C2963      C2970   1.515       .  S
C2964      H2969   1.083       .  S
C2965      C2966   1.412   1_455  A
C2966      C2967   1.509       .  S
C2967      F2971   1.384       .  S
C2967      F2972   1.384       .  S
C2967      F2973   1.379       .  S
C2970      F2974   1.371       .  S
C2970      F2975   1.379       .  S
C2970      F2976   1.382       .  S
C2977      C2982   1.421   1_554  A
C2978      C3429   1.503       .  S
C2979      C2980   1.428       .  A
C2979      C3378   1.510       .  S
C2980      C3413   1.495       .  S
C2981      C3394   1.506       .  S
C2982      C3445   1.501   1_556  S
O2983      C2998   1.264       .  A
O2983     Al2991   1.928   1_655  S
C2984      C3365   1.510       .  S
C2984      O2994   1.256       .  A
O2985     Al2987   1.953       .  S
O2986      C2988   1.257       .  A
O2986     Al2987   1.881       .  S
Al2987     O2995   1.884       .  S
Al2987     O2997   1.942       .  S
C2988      C3314   1.462       .  S
C2988      O3001   1.262       .  A
O2989      C2999   1.260       .  A
O2990      C3003   1.258       .  A
O2990     Al3000   1.895       .  S
Al2991     O3001   1.910   1_455  S
O2992      C2999   1.264       .  A
O2992     Al3000   1.909       .  S
O2993     Al3000   1.930       .  S
O2994     Al3000   1.920       .  S
O2995      C3002   1.256       .  A
O2996     Al3000   1.784       .  S
O2997      C2998   1.267       .  A
C2998      C3330   1.501       .  S
C2999      C3298   1.488       .  S
C3002      C3410   1.467       .  S
C3003      C3346   1.494       .  S
C3003      O3004   1.261       .  A
C3005      C3006   1.427       .  A
C3005      C3362   1.525       .  S
C3006      C3503   1.430       .  A
C3006      C3234   1.491       .  S
C3007      C3502   1.428       .  A
C3007      C3008   1.436   1_655  A
C3007      C3266   1.531       .  S
C3009      C3506   1.415       .  A
C3009      C3250   1.523       .  S
C3010      C3505   1.418       .  A
C3010      C3218   1.478       .  S
O3011      C3026   1.255       .  A
O3011     Al3019   1.897       .  S
C3012      C3461   1.493       .  S
C3012      O3022   1.266       .  A
O3013     Al3015   1.906       .  S
O3014      C3016   1.263       .  A
O3014     Al3015   1.901       .  S
Al3015     O3023   1.906       .  S
Al3015     O3025   1.918       .  S
C3016      C3202   1.487       .  S
C3016      O3029   1.263       .  A
O3017      C3027   1.256       .  A
O3018      C3031   1.265       .  A
O3018     Al3028   1.929       .  S
Al3019     O3029   1.908       .  S
O3020      C3027   1.257       .  A
O3020     Al3028   1.892       .  S
O3021     Al3028   1.865       .  S
O3022     Al3028   1.932       .  S
O3023      C3030   1.267       .  A
O3024     Al3028   1.782   1_455  S
O3025      C3026   1.259       .  A
C3026      C3154   1.476       .  S
C3027      C3186   1.463       .  S
C3030      C3285   1.465       .  S
C3031      C3170   1.516       .  S
C3031      O3032   1.261       .  A
C3033      C3034   1.426       .  A
C3033      C3038   1.421       .  A
C3033      C3138   1.479       .  S
C3034      C3349   1.510       .  S
C3035      C3036   1.423       .  A
C3035      C3205   1.491       .  S
C3036      C3037   1.429       .  A
C3036      C3125   1.514       .  S
C3037      C3189   1.478       .  S
C3038      C3333   1.531       .  S
O3039      C3054   1.264       .  A
O3039     Al3047   1.944       .  S
C3040      C3122   1.494       .  S
C3040      O3050   1.262       .  A
C3040      O3041   1.262       .  A
O3041     Al3043   1.923       .  S
O3042      C3044   1.267       .  A
O3042     Al3043   1.930       .  S
Al3043     O3051   1.917       .  S
Al3043     O3053   1.905       .  S
Al3043     O3052   1.793       .  S
C3044      C3442   1.488       .  S
C3044      O3057   1.263       .  A
O3045      C3055   1.265       .  A
O3045     Al3047   1.942       .  S
O3046      C3059   1.267       .  A
O3046     Al3056   1.933       .  S
Al3047     O3060   1.926       .  S
Al3047     O3057   1.911       .  S
Al3047     O3052   1.799       .  S
O3048      C3055   1.259       .  A
O3048     Al3056   1.897       .  S
O3049      C3058   1.257       .  A
O3049     Al3056   1.885       .  S
O3050     Al3056   1.923       .  S
O3051      C3058   1.263       .  A
O3052     Al3056   1.785       .  S
O3053      C3054   1.259       .  A
C3054      C3253   1.496       .  S
C3055      C3426   1.497       .  S
C3058      C3109   1.470       .  S
C3059      C3269   1.504       .  S
C3059      O3060   1.264       .  A
C3061      C3062   1.423       .  A
C3061      C3066   1.426       .  A
C3061      C3093   1.513       .  S
C3062      C3063   1.419       .  A
C3062      C3317   1.481       .  S
C3063      C3064   1.420       .  A
C3063      C3173   1.514       .  S
C3064      C3065   1.420       .  A
C3064      C3106   1.494       .  S
C3065      C3066   1.422       .  A
C3065      C3157   1.498       .  S
C3066      C3301   1.501       .  S
O3067      C3082   1.260       .  A
O3067     Al3075   1.908       .  S
C3068      C3090   1.484       .  S
C3068      O3078   1.255       .  A
C3068      O3069   1.264       .  A
O3069     Al3071   1.931       .  S
O3070      C3072   1.253       .  A
O3070     Al3071   1.879       .  S
Al3071     O3079   1.875       .  S
Al3071     O3081   1.936       .  S
Al3071     O3080   1.782       .  S
C3072      C3237   1.491       .  S
C3072      O3085   1.266       .  A
O3073      C3083   1.258       .  A
O3073     Al3075   1.878       .  S
O3074      C3087   1.257       .  A
O3074     Al3084   1.893       .  S
Al3075     O3088   1.931       .  S
Al3075     O3085   1.928       .  S
Al3075     O3080   1.788       .  S
O3076      C3083   1.265       .  A
O3076     Al3084   1.914       .  S
O3077      C3086   1.261       .  A
O3077     Al3084   1.899       .  S
O3078     Al3084   1.890       .  S
O3079      C3086   1.255       .  A
O3080     Al3084   1.778       .  S
O3081      C3082   1.269       .  A
C3082      C3381   1.486       .  S
C3083      C3221   1.459       .  S
C3086      C3141   1.452       .  S
C3087      C3397   1.486       .  S
C3087      O3088   1.261       .  A
C3089      C3090   1.398       .  A
C3089      C3094   1.410       .  A
C3089      H3096   1.082       .  S
C3090      C3091   1.415       .  A
C3091      C3092   1.408       .  A
C3091      C3098   1.516       .  S
C3092      C3093   1.404       .  A
C3092      H3097   1.080       .  S
C3093      C3094   1.430       .  A
C3094      C3095   1.518       .  S
C3095      F3099   1.383       .  S
C3095      F3100   1.379       .  S
C3095      F3101   1.383       .  S
C3098      F3102   1.382       .  S
C3098      F3103   1.374       .  S
C3098      F3104   1.378       .  S
C3105      C3106   1.401       .  A
C3105      C3110   1.400       .  A
C3105      H3112   1.080       .  S
C3106      C3107   1.427       .  A
C3107      C3108   1.405       .  A
C3107      C3114   1.518       .  S
C3108      C3109   1.397       .  A
C3108      H3113   1.085       .  S
C3109      C3110   1.413       .  A
C3110      C3111   1.515       .  S
C3111      F3115   1.382       .  S
C3111      F3116   1.369       .  S
C3111      F3117   1.381       .  S
C3114      F3118   1.382       .  S
C3114      F3119   1.376       .  S
C3114      F3120   1.384       .  S
C3121      C3122   1.401       .  A
C3121      C3126   1.410       .  A
C3121      H3128   1.083       .  S
C3122      C3123   1.411       .  A
C3123      C3124   1.414       .  A
C3123      C3130   1.510       .  S
C3124      C3125   1.409       .  A
C3124      H3129   1.080       .  S
C3125      C3126   1.425       .  A
C3126      C3127   1.516       .  S
C3127      F3131   1.382       .  S
C3127      F3133   1.376       .  S
C3130      F3134   1.382       .  S
C3130      F3135   1.378       .  S
C3130      F3136   1.384   1_565  S
C3137      C3138   1.401       .  A
C3137      C3142   1.394       .  A
C3137      H3144   1.083       .  S
C3138      C3139   1.429       .  A
C3139      C3140   1.400       .  A
C3139      C3146   1.522       .  S
C3140      C3141   1.394       .  A
C3140      H3145   1.085       .  S
C3141      C3142   1.408       .  A
C3142      C3143   1.516       .  S
C3143      F3147   1.383       .  S
C3143      F3148   1.380       .  S
C3143      F3149   1.368       .  S
C3146      F3151   1.381       .  S
C3146      F3152   1.381       .  S
C3153      C3154   1.397       .  A
C3153      C3158   1.402       .  A
C3153      H3160   1.079       .  S
C3154      C3155   1.410       .  A
C3155      C3156   1.406       .  A
C3155      C3162   1.514       .  S
C3156      C3157   1.407       .  A
C3156      H3161   1.073       .  S
C3157      C3158   1.423       .  A
C3158      C3159   1.521       .  S
C3159      F3163   1.383       .  S
C3159      F3164   1.380       .  S
C3159      F3165   1.383       .  S
C3162      F3166   1.375       .  S
C3162      F3167   1.383       .  S
C3162      F3168   1.385       .  S
C3169      C3170   1.413       .  A
C3169      C3174   1.417       .  A
C3169      H3176   1.084       .  S
C3170      C3171   1.427       .  A
C3171      C3172   1.410       .  A
C3171      C3178   1.520       .  S
C3172      C3173   1.404       .  A
C3172      H3177   1.082       .  S
C3173      C3174   1.420       .  A
C3174      C3175   1.512       .  S
C3175      F3179   1.382       .  S
C3175      F3180   1.381       .  S
C3175      F3181   1.384       .  S
C3178      F3182   1.374       .  S
C3178      F3183   1.383       .  S
C3178      F3184   1.386       .  S
C3185      C3186   1.399       .  A
C3185      C3190   1.403       .  A
C3185      H3192   1.078       .  S
C3186      C3187   1.406       .  A
C3187      C3188   1.394       .  A
C3187      C3194   1.511       .  S
C3188      C3189   1.402       .  A
C3188      H3193   1.077       .  S
C3189      C3190   1.417       .  A
C3190      C3191   1.515   1_565  S
C3191      F3195   1.383   1_545  S
C3191      F3196   1.383       .  S
C3191      F3197   1.378       .  S
C3194      F3198   1.385       .  S
C3194      F3199   1.383       .  S
C3194      F3200   1.380       .  S
C3201      C3202   1.410       .  A
C3201      C3206   1.411       .  A
C3201      H3208   1.083       .  S
C3202      C3203   1.417       .  A
C3203      C3204   1.396       .  A
C3203      C3210   1.522       .  S
C3204      C3205   1.397       .  A
C3204      H3209   1.075       .  S
C3205      C3206   1.417       .  A
C3206      C3207   1.515   1_565  S
C3207      F3211   1.383   1_545  S
C3207      F3212   1.381       .  S
C3210      F3214   1.377       .  S
C3210      F3215   1.383       .  S
C3210      F3216   1.385       .  S
C3217      C3218   1.405       .  A
C3217      C3222   1.407       .  A
C3217      H3224   1.083       .  S
C3218      C3219   1.427       .  A
C3219      C3220   1.391       .  A
C3219      C3226   1.521       .  S
C3220      C3221   1.390       .  A
C3220      H3225   1.083       .  S
C3221      C3222   1.411       .  A
C3222      C3223   1.514       .  S
C3223      F3227   1.385       .  S
C3223      F3228   1.381       .  S
C3223      F3229   1.383       .  S
C3226      F3230   1.376       .  S
C3226      F3231   1.384       .  S
C3226      F3232   1.377       .  S
C3233      C3234   1.402       .  A
C3233      C3238   1.405       .  A
C3233      H3240   1.083       .  S
C3234      C3235   1.424       .  A
C3235      C3236   1.402       .  A
C3235      C3738   1.520       .  S
C3236      C3237   1.402       .  A
C3236      H3737   1.084       .  S
C3237      C3238   1.424       .  A
C3238      C3239   1.518       .  S
C3239      F3243   1.385       .  S
C3239      F3244   1.383       .  S
C3239      F3245   1.383       .  S
H3241      C3732   1.084       .  S
C3242      C3731   1.520       .  S
C3242      F3246   1.382       .  S
C3242      F3247   1.376       .  S
C3242      F3248   1.385       .  S
C3249      C3250   1.407       .  A
C3249      C3254   1.410       .  A
C3249      H3256   1.084       .  S
C3250      C3251   1.431       .  A
C3251      C3252   1.412       .  A
C3251      C3258   1.506       .  S
C3252      C3253   1.398       .  A
C3252      H3257   1.085       .  S
C3253      C3254   1.415       .  A
C3254      C3255   1.506   1_554  S
C3255      F3259   1.385       .  S
C3255      F3260   1.381       .  S
C3255      F3261   1.381   1_556  S
C3258      F3758   1.382       .  S
C3258      F3263   1.363       .  S
C3258      F3264   1.385       .  S
F3262      C3754   1.381       .  S
C3265      C3266   1.414       .  A
C3265      C3270   1.417       .  A
C3265      H3272   1.080   1_554  S
C3266      C3267   1.431       .  A
C3267      C3268   1.413       .  A
C3267      C3770   1.514       .  S
C3268      C3269   1.404       .  A
C3268      H3273   1.085       .  S
C3269      C3270   1.417       .  A
C3270      C3271   1.517   1_554  S
C3271      F3275   1.385       .  S
C3271      F3276   1.378       .  S
C3271      F3277   1.383       .  S
C3274      C3763   1.510       .  S
C3274      F3774   1.368       .  S
C3274      F3279   1.383       .  S
C3274      F3280   1.383       .  S
F3278      C3770   1.372       .  S
C3281      C3286   1.398       .  A
C3281      H3288   1.082       .  S
C3282      C3283   1.420       .  A
C3283      C3284   1.391       .  A
C3283      C3290   1.516       .  S
C3284      C3285   1.393       .  A
C3284      H3289   1.076       .  S
C3286      C3287   1.518       .  S
C3287      F3291   1.380       .  S
C3287      F3292   1.370       .  S
C3287      F3293   1.383       .  S
C3290      F3294   1.380       .  S
C3290      F3295   1.377       .  S
C3290      F3296   1.384       .  S
C3297      C3298   1.407       .  A
C3297      C3302   1.410       .  A
C3297      H3304   1.080       .  S
C3298      C3299   1.413       .  A
C3299      C3300   1.404       .  A
C3299      C3306   1.518       .  S
C3300      C3301   1.407       .  A
C3300      H3305   1.080       .  S
C3301      C3302   1.419       .  A
C3302      C3303   1.515       .  S
C3303      F3307   1.383       .  S
C3303      F3308   1.381       .  S
C3303      F3309   1.383       .  S
C3306      F3310   1.383       .  S
C3306      F3311   1.378       .  S
C3306      F3312   1.385       .  S
C3313      C3314   1.394       .  A
C3313      C3318   1.395       .  A
C3313      H3320   1.079       .  S
C3314      C3315   1.408       .  A
C3315      C3316   1.401       .  A
C3315      C3322   1.514       .  S
C3316      C3317   1.403       .  A
C3316      H3321   1.075       .  S
C3317      C3318   1.422       .  A
C3318      C3319   1.521       .  S
C3319      F3323   1.383       .  S
C3319      F3324   1.377       .  S
C3319      F3325   1.384       .  S
C3322      F3326   1.384       .  S
C3322      F3327   1.382       .  S
C3322      F3328   1.384       .  S
C3329      C3330   1.400       .  A
C3329      C3334   1.415       .  A
C3329      H3336   1.085       .  S
C3330      C3331   1.415       .  A
C3331      C3332   1.416       .  A
C3331      C3338   1.514       .  S
C3332      C3333   1.411       .  A
C3332      H3337   1.078       .  S
C3333      C3334   1.430       .  A
C3335      F3339   1.383   1_545  S
C3335      F3340   1.370   1_545  S
C3338      F3342   1.383       .  S
C3338      F3343   1.376       .  S
C3338      F3344   1.385       .  S
C3345      C3346   1.399       .  A
C3345      C3350   1.406       .  A
C3345      H3352   1.086       .  S
C3346      C3347   1.418       .  A
C3347      C3348   1.411       .  A
C3347      C3354   1.512       .  S
C3348      C3349   1.407       .  A
C3348      H3353   1.083       .  S
C3349      C3350   1.427       .  A
C3350      C3351   1.507       .  S
C3351      F3355   1.383       .  S
C3351      F3356   1.384       .  S
C3351      F3357   1.363       .  S
C3354      F3358   1.378       .  S
C3354      F3359   1.383       .  S
C3354      F3360   1.385       .  S
C3361      C3362   1.413   1_455  A
C3361      C3366   1.422       .  A
C3361      H3368   1.083       .  S
C3363      C3364   1.409       .  A
C3363      C3370   1.507       .  S
C3364      C3365   1.400       .  A
C3364      H3369   1.074       .  S
C3366      C3367   1.512       .  S
C3367      F3371   1.384       .  S
C3367      F3372   1.379       .  S
C3367      F3373   1.380       .  S
C3370      F3374   1.377       .  S
C3370      F3375   1.383       .  S
C3370      F3376   1.370       .  S
C3377      C3378   1.409       .  A
C3377      C3382   1.408       .  A
C3377      H3384   1.082       .  S
C3378      C3379   1.423       .  A
C3379      C3380   1.415       .  A
C3380      C3381   1.404       .  A
C3380      H3385   1.085       .  S
C3381      C3382   1.409       .  A
C3382      C3383   1.517       .  S
C3383      F3387   1.384       .  S
C3383      F3388   1.383       .  S
C3383      F3389   1.378       .  S
C3386      F3390   1.383       .  S
C3386      F3391   1.375       .  S
C3386      F3392   1.383   1_565  S
C3393      C3394   1.405       .  A
C3393      C3398   1.407       .  A
C3393      H3896   1.083       .  S
C3394      C3395   1.426       .  A
C3395      C3396   1.407       .  A
C3395      C3402   1.506       .  S
C3396      C3397   1.398       .  A
C3396      H3401   1.086       .  S
C3397      C3398   1.415       .  A
C3398      C3895   1.512       .  S
C3399      C3894   1.510       .  S
C3399      F3403   1.384   1_556  S
C3399      F3404   1.382       .  S
C3399      F3901   1.383   1_556  S
H3400      C3889   1.083   1_554  S
C3402      F3406   1.383       .  S
C3402      F3407   1.368       .  S
C3402      F3408   1.382       .  S
F3405      C3895   1.382       .  S
C3409      C3414   1.410       .  A
C3409      H3416   1.084       .  S
C3410      C3411   1.406       .  A
C3411      C3412   1.397       .  A
C3411      C3418   1.511       .  S
C3412      C3413   1.399       .  A
C3412      H3417   1.080       .  S
C3415      F3419   1.382       .  S
C3415      F3421   1.381       .  S
C3418      F3422   1.380       .  S
C3418      F3424   1.378       .  S
C3425      C3426   1.403       .  A
C3425      C3430   1.409       .  A
C3425      H3432   1.078       .  S
C3426      C3427   1.417       .  A
C3427      C3428   1.408   1_554  A
C3427      C3434   1.513   1_554  S
C3428      C3429   1.405   1_556  A
C3428      H3433   1.081       .  S
C3429      C3430   1.422       .  A
C3431      F3931   1.384       .  S
C3431      F3932   1.383       .  S
C3431      F3437   1.372       .  S
C3434      F3438   1.382       .  S
C3434      F3439   1.379   1_556  S
C3434      F3440   1.385       .  S
F3435      C3927   1.383       .  S
F3436      C3927   1.383       .  S
C3441      C3442   1.407       .  A
C3441      C3446   1.412       .  A
C3441      H3448   1.083       .  S
C3442      C3443   1.421   1_554  A
C3443      C3444   1.403       .  A
C3443      C3946   1.518       .  S
C3444      C3445   1.401   1_556  A
C3444      H3945   1.081       .  S
C3445      C3446   1.420       .  A
C3446      C3447   1.515       .  S
C3447      F3451   1.383   1_565  S
C3447      F3452   1.383       .  S
C3447      F3453   1.379   1_565  S
H3449      C3940   1.076       .  S
C3450      C3939   1.519       .  S
C3450      F3454   1.377       .  S
C3450      F3951   1.383       .  S
C3450      F3456   1.385       .  S
F3455      C3946   1.383       .  S
C3457      C3458   1.408       .  A
C3457      C3462   1.410       .  A
C3457      H3464   1.076       .  S
C3459      C3460   1.404       .  A
C3459      C3466   1.516       .  S
C3460      H3465   1.081       .  S
C3461      C3462   1.412       .  A
C3462      C3463   1.511       .  S
C3463      F3467   1.384       .  S
C3463      F3468   1.384       .  S
C3463      F3469   1.381       .  S
C3466      F3470   1.377       .  S
C3466      F3471   1.379   1_554  S
C3466      F3472   1.383       .  S
C3473      C3478   1.425       .  A
C3474      C3925   1.502       .  S
C3475      C3476   1.428       .  A
C3475      C3874   1.509       .  S
C3476      C3909   1.496       .  S
C3477      C3890   1.507       .  S
C3478      C3941   1.506       .  S
O3479      C3494   1.264       .  A
O3479     Al3487   1.925   1_655  S
C3480      C3861   1.502       .  S
C3480      O3490   1.258       .  A
O3481     Al3483   1.936       .  S
O3482      C3484   1.257       .  A
O3482     Al3483   1.893       .  S
Al3483     O3491   1.890       .  S
Al3483     O3493   1.937       .  S
C3484      C3810   1.466       .  S
C3484      O3497   1.260       .  A
O3485      C3495   1.262       .  A
O3486      C3499   1.259       .  A
O3486     Al3496   1.900       .  S
Al3487     O3497   1.906   1_455  S
O3488      C3495   1.265       .  A
O3488     Al3496   1.917       .  S
O3489     Al3496   1.923       .  S
O3490     Al3496   1.920       .  S
O3491      C3498   1.258       .  A
O3492     Al3496   1.787       .  S
O3493      C3494   1.267       .  A
C3494      C3826   1.500       .  S
C3495      C3794   1.490       .  S
C3498      C3906   1.471       .  S
C3499      C3842   1.494       .  S
C3499      O3500   1.260       .  A
C3501      C3502   1.423   1_456  A
C3501      C3858   1.523       .  S
C3502      C3730   1.487   1_554  S
C3503      C3504   1.438       .  A
C3503      C3762   1.537       .  S
C3505      C3746   1.530       .  S
C3506      C3714   1.485   1_554  S
O3507      C3522   1.257       .  A
O3507     Al3515   1.900       .  S
C3508      C3957   1.485       .  S
C3508      O3518   1.266   1_455  A
O3509     Al3511   1.909       .  S
O3510      C3512   1.264       .  A
O3510     Al3511   1.907       .  S
Al3511     O3519   1.903       .  S
Al3511     O3521   1.925       .  S
C3512      C3698   1.493       .  S
C3512      O3525   1.264       .  A
O3513      C3523   1.253       .  A
O3514      C3527   1.266       .  A
O3514     Al3524   1.936       .  S
Al3515     O3525   1.917       .  S
O3516      C3523   1.257       .  A
O3516     Al3524   1.889       .  S
O3517     Al3524   1.869       .  S
O3518     Al3524   1.933       .  S
O3519      C3526   1.267       .  A
O3520     Al3524   1.787   1_455  S
O3521      C3522   1.262       .  A
C3522      C3650   1.478       .  S
C3523      C3682   1.467       .  S
C3526      C3781   1.470       .  S
C3527      C3666   1.523       .  S
C3527      O3528   1.264       .  A
C3529      C3530   1.430       .  A
C3529      C3534   1.428       .  A
C3529      C3634   1.484       .  S
C3530      C3845   1.516       .  S
C3531      C3532   1.422       .  A
C3531      C3701   1.494       .  S
C3532      C3533   1.428       .  A
C3532      C3621   1.511       .  S
C3533      C3685   1.484       .  S
C3534      C3829   1.535       .  S
O3535      C3550   1.264       .  A
O3535     Al3543   1.942       .  S
C3536      C3618   1.497       .  S
C3536      O3546   1.261       .  A
C3536      O3537   1.259       .  A
O3537     Al3539   1.922       .  S
O3538      C3540   1.266       .  A
O3538     Al3539   1.920       .  S
Al3539     O3547   1.917       .  S
Al3539     O3549   1.909       .  S
Al3539     O3548   1.795       .  S
C3540      C3938   1.489       .  S
C3540      O3553   1.263       .  A
O3541      C3551   1.267       .  A
O3541     Al3543   1.945       .  S
O3542      C3555   1.266       .  A
O3542     Al3552   1.933       .  S
Al3543     O3556   1.929       .  S
Al3543     O3553   1.911       .  S
Al3543     O3548   1.802       .  S
O3544      C3551   1.258       .  A
O3544     Al3552   1.888       .  S
O3545      C3554   1.256       .  A
O3545     Al3552   1.875       .  S
O3546     Al3552   1.924       .  S
O3547      C3554   1.264       .  A
O3548     Al3552   1.789       .  S
O3549      C3550   1.258       .  A
C3550      C3749   1.497       .  S
C3551      C3922   1.500       .  S
C3554      C3605   1.465       .  S
C3555      C3765   1.508       .  S
C3555      O3556   1.263       .  A
C3557      C3558   1.427       .  A
C3557      C3562   1.427       .  A
C3557      C3589   1.513       .  S
C3558      C3559   1.421       .  A
C3558      C3813   1.484       .  S
C3559      C3560   1.423       .  A
C3559      C3669   1.517       .  S
C3560      C3561   1.420       .  A
C3560      C3602   1.494       .  S
C3561      C3562   1.420       .  A
C3561      C3653   1.499       .  S
C3562      C3797   1.504       .  S
O3563      C3578   1.258       .  A
O3563     Al3571   1.904       .  S
C3564      C3586   1.488       .  S
C3564      O3574   1.259       .  A
C3564      O3565   1.262       .  A
O3565     Al3567   1.922       .  S
O3566      C3568   1.253       .  A
O3566     Al3567   1.875       .  S
Al3567     O3575   1.874       .  S
Al3567     O3577   1.932       .  S
Al3567     O3576   1.783       .  S
C3568      C3733   1.488       .  S
C3568      O3581   1.265       .  A
O3569      C3579   1.258       .  A
O3569     Al3571   1.880       .  S
O3570      C3583   1.258       .  A
O3570     Al3580   1.902       .  S
Al3571     O3584   1.919       .  S
Al3571     O3581   1.922       .  S
Al3571     O3576   1.793       .  S
O3572      C3579   1.266       .  A
O3572     Al3580   1.923       .  S
O3573      C3582   1.261       .  A
O3573     Al3580   1.898       .  S
O3574     Al3580   1.905       .  S
O3575      C3582   1.255       .  A
O3576     Al3580   1.781       .  S
O3577      C3578   1.267       .  A
C3578      C3877   1.484       .  S
C3579      C3717   1.465       .  S
C3582      C3637   1.452       .  S
C3583      C3893   1.485       .  S
C3583      O3584   1.259       .  A
C3585      C3586   1.399       .  A
C3585      C3590   1.411       .  A
C3585      H3592   1.082       .  S
C3586      C3587   1.417       .  A
C3587      C3588   1.409       .  A
C3587      C3594   1.516       .  S
C3588      C3589   1.405       .  A
C3588      H3593   1.081       .  S
C3589      C3590   1.430       .  A
C3590      C3591   1.518       .  S
C3591      F3595   1.384       .  S
C3591      F3596   1.378       .  S
C3591      F3597   1.383       .  S
C3594      F3598   1.380       .  S
C3594      F3599   1.373       .  S
C3594      F3600   1.379       .  S
C3601      C3602   1.401       .  A
C3601      C3606   1.397       .  A
C3601      H3608   1.078       .  S
C3602      C3603   1.427       .  A
C3603      C3604   1.404       .  A
C3603      C3610   1.518       .  S
C3604      C3605   1.396       .  A
C3604      H3609   1.085       .  S
C3605      C3606   1.412       .  A
C3606      C3607   1.516       .  S
C3607      F3611   1.381       .  S
C3607      F3612   1.365       .  S
C3607      F3613   1.381       .  S
C3610      F3614   1.383       .  S
C3610      F3615   1.377       .  S
C3610      F3616   1.384       .  S
C3617      C3618   1.405       .  A
C3617      C3622   1.410       .  A
C3617      H3624   1.081       .  S
C3618      C3619   1.411       .  A
C3619      C3620   1.415       .  A
C3619      C3626   1.513       .  S
C3620      C3621   1.409       .  A
C3620      H3625   1.080   1_565  S
C3621      C3622   1.421       .  A
C3622      C3623   1.518       .  S
C3623      F3627   1.383       .  S
C3623      F3629   1.380       .  S
C3626      F3630   1.380       .  S
C3626      F3631   1.381       .  S
C3626      F3632   1.384   1_565  S
C3633      C3634   1.403       .  A
C3633      C3638   1.398       .  A
C3633      H3640   1.083       .  S
C3634      C3635   1.428       .  A
C3635      C3636   1.398       .  A
C3635      C3642   1.519       .  S
C3636      C3637   1.391       .  A
C3636      H3641   1.085       .  S
C3637      C3638   1.409       .  A
C3638      C3639   1.517       .  S
C3639      F3643   1.383       .  S
C3639      F3644   1.381       .  S
C3639      F3645   1.371       .  S
C3642      F3647   1.381       .  S
C3642      F3648   1.379       .  S
C3649      C3650   1.397       .  A
C3649      C3654   1.402       .  A
C3649      H3656   1.077       .  S
C3650      C3651   1.411       .  A
C3651      C3652   1.409       .  A
C3651      C3658   1.515       .  S
C3652      C3653   1.408       .  A
C3652      H3657   1.073       .  S
C3653      C3654   1.422       .  A
C3654      C3655   1.521       .  S
C3655      F3659   1.383       .  S
C3655      F3660   1.379       .  S
C3655      F3661   1.383       .  S
C3658      F3662   1.377       .  S
C3658      F3663   1.383       .  S
C3658      F3664   1.384       .  S
C3665      C3666   1.414       .  A
C3665      C3670   1.421       .  A
C3665      H3672   1.084       .  S
C3666      C3667   1.429       .  A
C3667      C3668   1.410       .  A
C3667      C3674   1.514       .  S
C3668      C3669   1.401       .  A
C3668      H3673   1.081       .  S
C3669      C3670   1.423       .  A
C3670      C3671   1.513       .  S
C3671      F3675   1.383       .  S
C3671      F3676   1.381       .  S
C3671      F3677   1.383       .  S
C3674      F3678   1.377       .  S
C3674      F3679   1.383       .  S
C3674      F3680   1.385       .  S
C3681      C3682   1.403       .  A
C3681      C3686   1.402       .  A
C3681      H3688   1.080       .  S
C3682      C3683   1.408       .  A
C3683      C3684   1.394       .  A
C3683      C3690   1.518       .  S
C3684      C3685   1.402       .  A
C3684      H3689   1.071       .  S
C3685      C3686   1.416       .  A
C3686      C3687   1.515   1_565  S
C3687      F3691   1.383   1_545  S
C3687      F3692   1.383       .  S
C3687      F3693   1.379       .  S
C3690      F3694   1.383       .  S
C3690      F3695   1.373       .  S
C3690      F3696   1.385       .  S
C3697      C3698   1.411       .  A
C3697      C3702   1.413       .  A
C3697      H3704   1.083       .  S
C3698      C3699   1.419       .  A
C3699      C3700   1.398       .  A
C3699      C3706   1.519       .  S
C3700      C3701   1.398       .  A
C3700      H3705   1.079       .  S
C3701      C3702   1.418       .  A
C3702      C3703   1.516   1_565  S
C3703      F3707   1.383       .  S
C3703      F3708   1.381       .  S
C3706      F3710   1.375       .  S
C3706      F3711   1.383       .  S
C3706      F3712   1.385       .  S
C3713      C3714   1.407       .  A
C3713      C3718   1.409       .  A
C3713      H3720   1.083       .  S
C3714      C3715   1.426   1_556  A
C3715      C3716   1.394   1_554  A
C3715      C3722   1.521       .  S
C3716      C3717   1.392       .  A
C3716      H3721   1.083   1_556  S
C3717      C3718   1.411       .  A
C3718      C3719   1.514       .  S
C3719      F3723   1.384       .  S
C3719      F3724   1.382       .  S
C3719      F3725   1.384       .  S
C3722      F3726   1.377       .  S
C3722      F3727   1.384       .  S
C3722      F3728   1.376       .  S
C3729      C3730   1.401       .  A
C3729      C3734   1.403       .  A
C3729      H3736   1.083       .  S
C3730      C3731   1.421   1_556  A
C3731      C3732   1.401       .  A
C3732      C3733   1.403   1_554  A
C3733      C3734   1.424       .  A
C3734      C3735   1.519       .  S
C3735      F3739   1.385       .  S
C3735      F3740   1.383       .  S
C3735      F3741   1.383       .  S
C3738      F3742   1.382       .  S
C3738      F3743   1.376       .  S
C3738      F3744   1.385       .  S
C3745      C3746   1.406       .  A
C3745      C3750   1.408       .  A
C3745      H3752   1.085       .  S
C3746      C3747   1.433       .  A
C3747      C3748   1.417       .  A
C3747      C3754   1.508       .  S
C3748      C3749   1.400       .  A
C3748      H3753   1.084       .  S
C3749      C3750   1.418       .  A
C3750      C3751   1.508       .  S
C3751      F3755   1.384       .  S
C3751      F3756   1.383       .  S
C3751      F3757   1.378       .  S
C3754      F3759   1.365       .  S
C3754      F3760   1.385       .  S
C3761      C3762   1.415       .  A
C3761      C3766   1.420       .  A
C3761      H3768   1.080       .  S
C3762      C3763   1.432       .  A
C3763      C3764   1.414       .  A
C3764      C3765   1.403       .  A
C3764      H3769   1.085       .  S
C3765      C3766   1.418       .  A
C3766      C3767   1.516       .  S
C3767      F3771   1.385       .  S
C3767      F3772   1.378       .  S
C3767      F3773   1.383       .  S
C3770      F3775   1.383       .  S
C3770      F3776   1.383       .  S
C3777      C3782   1.400       .  A
C3777      H3784   1.083       .  S
C3778      C3779   1.424       .  A
C3779      C3780   1.394       .  A
C3779      C3786   1.514       .  S
C3780      C3781   1.393       .  A
C3780      H3785   1.079       .  S
C3782      C3783   1.520       .  S
C3783      F3787   1.384       .  S
C3783      F3788   1.367       .  S
C3783      F3789   1.382       .  S
C3786      F3790   1.382       .  S
C3786      F3791   1.374       .  S
C3786      F3792   1.384       .  S
C3793      C3794   1.407       .  A
C3793      C3798   1.412       .  A
C3793      H3800   1.082       .  S
C3794      C3795   1.414       .  A
C3795      C3796   1.405       .  A
C3795      C3802   1.518       .  S
C3796      C3797   1.407       .  A
C3796      H3801   1.080       .  S
C3797      C3798   1.420       .  A
C3798      C3799   1.514       .  S
C3799      F3803   1.383       .  S
C3799      F3804   1.381       .  S
C3799      F3805   1.382       .  S
C3802      F3806   1.384       .  S
C3802      F3807   1.379       .  S
C3802      F3808   1.385       .  S
C3809      C3810   1.396       .  A
C3809      C3814   1.397       .  A
C3809      H3816   1.083       .  S
C3810      C3811   1.412       .  A
C3811      C3812   1.406       .  A
C3811      C3818   1.516       .  S
C3812      C3813   1.404       .  A
C3812      H3817   1.078       .  S
C3813      C3814   1.421       .  A
C3814      C3815   1.519       .  S
C3815      F3819   1.383       .  S
C3815      F3820   1.378       .  S
C3815      F3821   1.383       .  S
C3818      F3822   1.384       .  S
C3818      F3823   1.381       .  S
C3818      F3824   1.385       .  S
C3825      C3826   1.400       .  A
C3825      C3830   1.413       .  A
C3825      H3832   1.085       .  S
C3826      C3827   1.415       .  A
C3827      C3828   1.419       .  A
C3827      C3834   1.515       .  S
C3828      C3829   1.413       .  A
C3828      H3833   1.077       .  S
C3829      C3830   1.432       .  A
C3831      F3835   1.383   1_545  S
C3831      F3836   1.367   1_545  S
C3834      F3838   1.383       .  S
C3834      F3839   1.381       .  S
C3834      F3840   1.384       .  S
C3841      C3842   1.398       .  A
C3841      C3846   1.408       .  A
C3841      H3848   1.085       .  S
C3842      C3843   1.417       .  A
C3843      C3844   1.412       .  A
C3843      C3850   1.513       .  S
C3844      C3845   1.408       .  A
C3844      H3849   1.083       .  S
C3845      C3846   1.431       .  A
C3846      C3847   1.509       .  S
C3847      F3851   1.383       .  S
C3847      F3852   1.385       .  S
C3847      F3853   1.362       .  S
C3850      F3854   1.378       .  S
C3850      F3855   1.383       .  S
C3850      F3856   1.384       .  S
C3857      C3858   1.413       .  A
C3857      C3862   1.419       .  A
C3857      H3864   1.084       .  S
C3859      C3860   1.406       .  A
C3859      C3866   1.510       .  S
C3860      C3861   1.400       .  A
C3860      H3865   1.076       .  S
C3862      C3863   1.515       .  S
C3863      F3867   1.383   1_455  S
C3863      F3868   1.380       .  S
C3863      F3869   1.383       .  S
C3866      F3870   1.380       .  S
C3866      F3871   1.383       .  S
C3866      F3872   1.369   1_556  S
C3873      C3874   1.408       .  A
C3873      C3878   1.406       .  A
C3873      H3880   1.080   1_556  S
C3874      C3875   1.423       .  A
C3875      C3876   1.415       .  A
C3876      C3877   1.404       .  A
C3876      H3881   1.085       .  S
C3877      C3878   1.409       .  A
C3878      C3879   1.517   1_556  S
C3879      F3883   1.384       .  S
C3879      F3884   1.383       .  S
C3879      F3885   1.381   1_554  S
C3882      F3886   1.383       .  S
C3882      F3887   1.376       .  S
C3882      F3888   1.383   1_565  S
C3889      C3890   1.403       .  A
C3889      C3894   1.404       .  A
C3890      C3891   1.429       .  A
C3891      C3892   1.410       .  A
C3891      C3898   1.510       .  S
C3892      C3893   1.398       .  A
C3892      H3897   1.085       .  S
C3893      C3894   1.413       .  A
C3895      F3899   1.384       .  S
C3895      F3900   1.383       .  S
C3898      F3902   1.385       .  S
C3898      F3903   1.367       .  S
C3898      F3904   1.382       .  S
C3905      C3910   1.407       .  A
C3905      H3912   1.085       .  S
C3906      C3907   1.405       .  A
C3907      C3908   1.397       .  A
C3907      C3914   1.509       .  S
C3908      C3909   1.400       .  A
C3908      H3913   1.080       .  S
C3911      F3915   1.383       .  S
C3911      F3917   1.380       .  S
C3914      F3918   1.381       .  S
C3914      F3920   1.379       .  S
C3921      C3922   1.408       .  A
C3921      C3926   1.409       .  A
C3921      H3928   1.082       .  S
C3922      C3923   1.419       .  A
C3923      C3924   1.407       .  A
C3923      C3930   1.515       .  S
C3924      C3925   1.403       .  A
C3924      H3929   1.079       .  S
C3925      C3926   1.421       .  A
C3927      F3933   1.373       .  S
C3930      F3934   1.383       .  S
C3930      F3935   1.381       .  S
C3930      F3936   1.385       .  S
C3937      C3938   1.405       .  A
C3937      C3942   1.411       .  A
C3937      H3944   1.081       .  S
C3938      C3939   1.413       .  A
C3939      C3940   1.408       .  A
C3940      C3941   1.407       .  A
C3941      C3942   1.421       .  A
C3942      C3943   1.515       .  S
C3943      F3947   1.383   1_565  S
C3943      F3948   1.383       .  S
C3943      F3949   1.379   1_565  S
C3946      F3950   1.374       .  S
C3946      F3952   1.383       .  S
C3953      C3954   1.408   1_655  A
C3953      C3958   1.410       .  A
C3953      H3960   1.080       .  S
C3955      C3956   1.406       .  A
C3955      C3962   1.515       .  S
C3956      H3961   1.082       .  S
C3957      C3958   1.411   1_455  A
C3958      C3959   1.513       .  S
C3959      F3963   1.385   1_565  S
C3959      F3964   1.382   1_655  S
C3959      F3965   1.377       .  S
C3962      F3966   1.373       .  S
C3962      F3967   1.378       .  S
C3962      F3968   1.383       .  S
