geometry optimzed in LAMMPS
_audit_creation_date              2020-11-30 
_audit_creation_method            'lammps2cif' 
_symmetry_space_group_name_H-M    'P1' 
_symmetry_Int_Tables_number       1 
_symmetry_cell_setting            triclinic 
loop_ 
_symmetry_equiv_pos_as_xyz 
  x,y,z 
_cell_length_a                    36.45161643 
_cell_length_b                    36.31874932564641 
_cell_length_c                    46.63848450951865 
_cell_angle_alpha                 90.02469884752819 
_cell_angle_beta                  90.02671215151655 
_cell_angle_gamma                 120.40960642873934 
loop_ 
_atom_site_label 
_atom_site_type_symbol 
_atom_site_fract_x 
_atom_site_fract_y 
_atom_site_fract_z 
_atom_site_charge 
O1          O  0.45876608  0.07244383  0.28912746    -0.75500
O2          O  0.47826661  0.03710246  0.31999035    -0.54400
C3          C  0.46284795  0.06109291  0.31472370     0.78200
O4          O  0.38790111  0.91649773  0.18956004    -0.60100
O5          O  0.44371832  0.95311049  0.15942620    -0.53100
C6          C  0.40438974  0.92740899  0.16423981     0.70300
O7          O  0.38622897  0.92230127  0.28829777    -0.74600
O8          O  0.44191809  0.95442347  0.31905547    -0.55200
C9          C  0.40228431  0.93180322  0.31380836     0.76300
O10         O  0.46607884  0.07763621  0.18953021    -0.59800
O11         O  0.48667737  0.04211507  0.15958688    -0.52900
C12         C  0.47284100  0.06749486  0.16427607     0.72900
Zr13       Zr  0.47558514  0.06039656  0.23950370     2.54700
O14         O  0.41047150  0.06360667  0.23833499    -0.80400
O15         O  0.51598172  0.13813917  0.23995131    -0.93800
Zr16       Zr  0.41602282  0.93203176  0.23937327     2.64700
O17         O  0.34080522  0.91021782  0.23964917    -0.98700
O18         O  0.39213128  0.85614614  0.24063437    -0.80800
O19         O  0.44980344  0.99645648  0.26241649    -0.84100
O20         O  0.44287805  0.99610186  0.21227887    -2.18900
O21         O  0.61658226  0.08218289  0.18939933    -0.67500
O22         O  0.56108583  0.04305949  0.15940775    -0.52100
C23         C  0.60022810  0.06984410  0.16407058     0.71200
O24         O  0.54697100  0.92774497  0.29000692    -0.60400
O25         O  0.52426145  0.96082241  0.32043275    -0.52400
C26         C  0.54126709  0.93812261  0.31551648     0.73000
O27         O  0.54287703  0.92325401  0.19044610    -0.71800
O28         O  0.52005201  0.95647572  0.16015886    -0.50500
C29         C  0.53647457  0.93336749  0.16506064     0.74400
O30         O  0.61669833  0.07722614  0.28869457    -0.67200
O31         O  0.56050043  0.04562326  0.31906724    -0.54400
C32         C  0.60016672  0.06817519  0.31404196     0.72800
Zr33       Zr  0.58830077  0.06583158  0.23940475     2.77500
O34         O  0.66061112  0.07838626  0.24015285    -0.97900
O35         O  0.61731833  0.14268849  0.24121578    -0.78700
Zr36       Zr  0.52880701  0.93776541  0.24023904     2.70100
O37         O  0.59285490  0.93262319  0.23987747    -0.80000
O38         O  0.48630281  0.86016231  0.24158824    -0.99100
Zr39       Zr  0.50164316  0.99916516  0.29060613     2.21500
Zr40       Zr  0.50217362  0.99866988  0.18899793     2.11100
O41         O  0.56125450  0.00167198  0.21275871    -2.47800
O42         O  0.55385064  0.00180703  0.26287258    -0.79800
O43         O  0.52988890  0.05865225  0.21603376    -0.72000
O44         O  0.47054294  0.93158999  0.26753056    -2.32900
O45         O  0.53346416  0.06650032  0.26711125    -2.29100
O46         O  0.47451123  0.93896122  0.21625351    -0.73700
H47         H  0.42190705  0.99543957  0.19929620     0.78300
H48         H  0.45945696  0.90807564  0.28091021     0.79400
H49         H  0.58263359  0.00272534  0.20002822     0.81600
H50         H  0.54449915  0.09018122  0.28037363     0.79200
H51         H  0.39943507  0.84993105  0.22148783     0.42200
H52         H  0.50414911  0.85056047  0.23186047     0.41200
H53         H  0.61329042  0.95694661  0.22792707     0.40900
H54         H  0.66245337  0.06272563  0.22334944     0.38800
H55         H  0.63510457  0.15202172  0.25875236     0.41900
H56         H  0.53164083  0.14580147  0.25837279     0.36700
H57         H  0.38748970  0.03393923  0.24209335     0.42800
H58         H  0.33856650  0.93073824  0.22684771     0.39300
H59         H  0.67876674  0.10892283  0.23510247     0.44200
H60         H  0.49416366  0.14645110  0.24249564     0.42900
H61         H  0.32642052  0.88277556  0.22908850     0.43000
H62         H  0.48655642  0.85280835  0.26200430     0.43400
O63         O  0.06343507  0.61768558  0.30125092    -0.75500
O64         O  0.03805640  0.56050012  0.33077702    -0.54400
C65         C  0.05604321  0.60046872  0.32649107     0.78200
O66         O  0.91243643  0.52386204  0.20083584    -0.60100
O67         O  0.94866270  0.50430654  0.17096989    -0.53100
C68         C  0.92275163  0.51741795  0.17555872     0.70300
O69         O  0.92001811  0.53449918  0.29981446    -0.74600
O70         O  0.95528268  0.51441948  0.33013439    -0.55200
C71         C  0.93129385  0.52972267  0.32519042     0.76300
O72         O  0.06809768  0.61890979  0.20177664    -0.59800
O73         O  0.03386011  0.56259706  0.17144707    -0.52900
C74         C  0.05639388  0.60254445  0.17641423     0.72900
Zr75       Zr  0.05687795  0.59027143  0.25131938     2.54700
O76         O  0.06751525  0.66209485  0.25174896    -0.80400
O77         O  0.13416046  0.62521924  0.25234445    -0.93800
Zr78       Zr  0.92921578  0.51375154  0.25093958     2.64700
O79         O  0.90429059  0.56467446  0.25064784    -0.98700
O80         O  0.85434370  0.45900499  0.25391488    -0.80800
O81         O  0.99346642  0.54848509  0.27391186    -0.84100
O82         O  0.99257913  0.55476975  0.22422651    -2.18900
O83         O  0.08397387  0.47411423  0.19980660    -0.67500
O84         O  0.04757751  0.49364330  0.17003241    -0.52100
C85         C  0.07257131  0.47933338  0.17445293     0.71200
O86         O  0.93175081  0.38344790  0.30161138    -0.60400
O87         O  0.96222292  0.44082731  0.33125900    -0.52400
C88         C  0.94074458  0.40077106  0.32684778     0.73000
O89         O  0.93047499  0.38236514  0.20174289    -0.71800
O90         O  0.96539663  0.43842696  0.17135575    -0.50500
C91         C  0.94266740  0.39854131  0.17639018     0.74400
O92         O  0.08292928  0.47175408  0.30031321    -0.67200
O93         O  0.04608437  0.48993734  0.33067390    -0.54400
C94         C  0.07176532  0.47670183  0.32576457     0.72800
Zr95       Zr  0.07036335  0.48729044  0.25042430     2.77500
O96         O  0.09392264  0.43530662  0.25128883    -0.97900
O97         O  0.14561235  0.54138230  0.24978011    -0.78700
Zr98       Zr  0.94281213  0.41066284  0.25147264     2.70100
O99         O  0.94459016  0.34455506  0.25192049    -0.80000
O100        O  0.86545763  0.36764639  0.25131010    -0.99100
Zr101      Zr  0.99994602  0.50057509  0.30104079     2.21500
Zr102      Zr  0.99938050  0.50046051  0.20047116     2.11100
O103        O  0.00652457  0.44644607  0.22421860    -2.47800
O104        O  0.00644022  0.45262782  0.27389881    -0.79800
O105        O  0.05928880  0.53643306  0.22724992    -0.72000
O106        O  0.93257295  0.46035847  0.27863083    -2.32900
O107        O  0.06712406  0.54062752  0.27831727    -2.29100
O108        O  0.93996314  0.46447079  0.22765207    -0.73700
H109        H  0.98960619  0.57417455  0.21162386     0.78300
H110        H  0.90939390  0.44668687  0.29215210     0.79400
H111        H  0.00895228  0.42665154  0.21168332     0.81600
H112        H  0.09046550  0.55447882  0.29171700     0.79200
H113        H  0.84128827  0.47240619  0.26532102     0.42200
H114        H  0.85727062  0.36594534  0.23090021     0.41200
H115        H  0.97239769  0.35227391  0.24330479     0.40900
H116        H  0.07930589  0.41587462  0.23496045     0.38800
H117        H  0.15166120  0.55055995  0.22950296     0.41900
H118        H  0.14378294  0.65520206  0.25754240     0.36700
H119        H  0.03922961  0.65805529  0.25645759     0.42800
H120        H  0.92580399  0.58921994  0.23934995     0.39300
H121        H  0.12421206  0.45169970  0.24551628     0.44200
H122        H  0.14250909  0.62654802  0.23200623     0.42900
H123        H  0.87848297  0.55151724  0.23845465     0.43000
H124        H  0.85930710  0.33848007  0.25604790     0.43400
O125        O  0.52334112  0.61047005  0.30896910    -0.75500
O126        O  0.50593933  0.55448932  0.33870812    -0.54400
C127        C  0.51815285  0.59362655  0.33414317     0.78200
O128        O  0.38166154  0.44624684  0.20852268    -0.60100
O129        O  0.43836283  0.47631993  0.17852741    -0.53100
C130        C  0.39853305  0.45491802  0.18317348     0.70300
O131        O  0.38096283  0.44968336  0.30842047    -0.74600
O132        O  0.43764789  0.47333348  0.33822759    -0.55200
C133        C  0.39776367  0.45552789  0.33373857     0.76300
O134        O  0.52801560  0.61383713  0.20967758    -0.59800
O135        O  0.51038045  0.55911058  0.17884749    -0.52900
C136        C  0.52308192  0.59821291  0.18408636     0.72900
Zr137      Zr  0.51330442  0.58373270  0.25893706     2.54700
O138        O  0.46372766  0.61005087  0.25850320    -0.80400
O139        O  0.57132732  0.65771235  0.25950453    -0.93800
Zr140      Zr  0.40927261  0.46584082  0.25840046     2.64700
O141        O  0.36822025  0.50181227  0.25734660    -0.98700
O142        O  0.34247688  0.39799139  0.25932381    -0.80800
O143        O  0.46356557  0.52291135  0.28198325    -0.84100
O144        O  0.45912817  0.52675688  0.23137107    -2.18900
O145        O  0.61575345  0.55264285  0.20915261    -0.67500
O146        O  0.55978576  0.52637668  0.17845196    -0.52100
C147        C  0.59951505  0.54616880  0.18366937     0.71200
O148        O  0.47510665  0.38650204  0.30670495    -0.60400
O149        O  0.49263145  0.44183910  0.33715656    -0.52400
C150        C  0.48077722  0.40292956  0.33209119     0.73000
O151        O  0.46443861  0.38609121  0.20749430    -0.71800
O152        O  0.48416247  0.44212490  0.17751638    -0.50500
C153        C  0.46852272  0.40239014  0.18219997     0.74400
O154        O  0.61582894  0.54750857  0.30880062    -0.67200
O155        O  0.55908146  0.52267550  0.33864455    -0.54400
C156        C  0.59898601  0.54097970  0.33414613     0.72800
Zr157      Zr  0.58790778  0.53122876  0.25857180     2.77500
O158        O  0.62121326  0.48762346  0.25766776    -0.97900
O159        O  0.65999937  0.59245330  0.25803080    -0.78700
Zr160      Zr  0.48454896  0.41458118  0.25706264     2.70100
O161        O  0.53759563  0.39285404  0.25352332    -0.80000
O162        O  0.43161218  0.33870760  0.25934552    -0.99100
Zr163      Zr  0.49862021  0.49844507  0.30874469     2.21500
Zr164      Zr  0.49895752  0.50046264  0.20777765     2.11100
O165        O  0.53833902  0.47237346  0.22994121    -2.47800
O166        O  0.53338032  0.47419359  0.28144981    -0.79800
O167        O  0.54717480  0.55389910  0.23582818    -0.72000
O168        O  0.44459484  0.43699611  0.28483614    -2.32900
O169        O  0.55322376  0.56026969  0.28561983    -2.29100
O170        O  0.45101364  0.44542844  0.23489003    -0.73700
H171        H  0.44531786  0.53641685  0.21818751     0.78300
H172        H  0.42521448  0.41460725  0.29755896     0.79400
H173        H  0.55198184  0.46325453  0.21621843     0.81600
H174        H  0.57268100  0.58232388  0.29853829     0.79200
H175        H  0.35106764  0.37624700  0.26126466     0.42200
H176        H  0.40970146  0.33414806  0.24497410     0.41200
H177        H  0.53998553  0.38904098  0.23271591     0.40900
H178        H  0.65209006  0.50849476  0.25653617     0.38800
H179        H  0.65943831  0.61314086  0.27159242     0.41900
H180        H  0.59212960  0.65825199  0.27341275     0.36700
H181        H  0.45749548  0.61106046  0.23794267     0.42800
H182        H  0.34740926  0.48860984  0.27313755     0.39300
H183        H  0.61695854  0.47556638  0.27723199     0.44200
H184        H  0.55936790  0.67366524  0.26908289     0.42900
H185        H  0.38820444  0.53116392  0.26408788     0.43000
H186        H  0.44608239  0.32416678  0.25127328     0.43400
O187        O  0.77638605  0.44908627  0.99841127    -0.75500
O188        O  0.84816776  0.49466468  0.99878423    -0.54400
C189        C  0.81936290  0.46169535  0.49381125     0.78200
O190        O  0.74029643  0.61117966  0.43477543    -0.60100
O191        O  0.68254645  0.57811841  0.46289674    -0.53100
C192        C  0.70007747  0.59223406  0.43823599     0.70300
O193        O  0.84123923  0.57971681  0.42131114    -0.74600
O194        O  0.88273415  0.56825906  0.45239408    -0.55200
C195        C  0.87176395  0.57309852  0.42690860     0.76300
O196        O  0.66228338  0.46041191  0.50722107    -0.59800
O197        O  0.64654716  0.51363499  0.50933861    -0.52900
C198        C  0.63562360  0.47366805  0.50902433     0.72900
Zr199      Zr  0.73337983  0.48296618  0.00408423     2.54700
O200        O  0.70144811  0.43588146  0.46330368    -0.80400
O201        O  0.70432297  0.43066964  0.04264417    -0.93800
Zr202      Zr  0.78418973  0.58091043  0.44581624     2.64700
O203        O  0.73841169  0.52316307  0.41330918    -0.98700
O204        O  0.80993084  0.62488961  0.40290563    -0.80800
O205        O  0.79482765  0.53018121  0.47076979    -0.84100
O206        O  0.72546478  0.53466777  0.47484684    -2.18900
O207        O  0.73354435  0.57741632  0.08693239    -0.67500
O208        O  0.68523052  0.57765117  0.05616642    -0.52100
C209        C  0.69951822  0.57815845  0.08163234     0.71200
O210        O  0.91775066  0.69168151  0.50636070    -0.60400
O211        O  0.92488391  0.63255510  0.50351029    -0.52400
C212        C  0.93720005  0.66816335  0.00113640     0.73000
O213        O  0.79187209  0.70034013  0.50691064    -0.71800
O214        O  0.72146749  0.64862120  0.50903601    -0.50500
C215        C  0.75141476  0.68807555  0.50791630     0.74400
O216        O  0.86216598  0.59450674  0.07320785    -0.67200
O217        O  0.87965063  0.55477266  0.04637950    -0.54400
C218        C  0.87752992  0.57001231  0.07082724     0.72800
Zr219      Zr  0.78884690  0.57153583  0.06347493     2.77500
O220        O  0.81447285  0.61181550  0.10805371    -0.97900
O221        O  0.76784973  0.50996050  0.09436143    -0.78700
Zr222      Zr  0.83882066  0.66729529  0.50660074     2.70100
O223        O  0.86614038  0.71304952  0.04584013    -0.80000
O224        O  0.86907519  0.72182639  0.46943398    -0.99100
Zr225      Zr  0.85573784  0.56920231  0.50049063     2.21500
Zr226      Zr  0.71733858  0.57987903  0.50840090     2.11100
O227        O  0.77744737  0.62034686  0.03669788    -2.47800
O228        O  0.84634569  0.61360206  0.03241873    -0.79800
O229        O  0.72572863  0.52888994  0.03672025    -0.72000
O230        O  0.84619442  0.62070976  0.47405465    -2.32900
O231        O  0.79423724  0.52208631  0.03315277    -2.29100
O232        O  0.77658871  0.62627436  0.47844009    -0.73700
H233        H  0.70023116  0.51867668  0.46327775     0.78300
H234        H  0.87041605  0.63746176  0.46181280     0.79400
H235        H  0.77323514  0.63879111  0.04951281     0.81600
H236        H  0.79941668  0.50271748  0.04425172     0.79200
H237        H  0.82442240  0.65460170  0.41016414     0.42200
H238        H  0.87877382  0.70950503  0.45435564     0.41200
H239        H  0.87475558  0.69824641  0.05976824     0.40900
H240        H  0.80826515  0.63531444  0.10647821     0.38800
H241        H  0.79300183  0.51811249  0.10662219     0.41900
H242        H  0.67863535  0.40605852  0.03425557     0.36700
H243        H  0.72073229  0.44800524  0.44663150     0.42800
H244        H  0.71769457  0.53091659  0.40603739     0.39300
H245        H  0.79519098  0.59283386  0.12322165     0.44200
H246        H  0.69312053  0.44296025  0.05670000     0.42900
H247        H  0.75673544  0.52693782  0.39659782     0.43000
H248        H  0.84434727  0.72198773  0.46078541     0.43400
O249        O  0.67421248  0.21709078  0.98953718    -0.75500
O250        O  0.65105107  0.14598697  0.98757319    -0.54400
C251        C  0.64240972  0.18359233  0.48211893     0.78200
O252        O  0.87338250  0.26273754  0.42907173    -0.60100
O253        O  0.89664548  0.32084081  0.45656818    -0.53100
C254        C  0.89352135  0.30314778  0.43203605     0.70300
O255        O  0.73879369  0.16572919  0.41142995    -0.74600
O256        O  0.68514977  0.12078671  0.44117840    -0.55200
C257        C  0.70158386  0.13407393  0.41608054     0.76300
O258        O  0.79911118  0.33970980  0.49735257    -0.59800
O259        O  0.86768150  0.35564894  0.50321788    -0.52900
C260        C  0.83900764  0.36655264  0.50041264     0.72900
Zr261      Zr  0.75150924  0.26046985  0.99463007     2.54700
O262        O  0.73053595  0.30021461  0.45766442    -0.80400
O263        O  0.72276666  0.28612975  0.03167044    -0.93800
Zr264      Zr  0.79815404  0.21954020  0.43742975     2.64700
O265        O  0.79134725  0.26814909  0.40480070    -0.98700
O266        O  0.81646337  0.19134278  0.39593985    -0.80800
O267        O  0.73611195  0.20821501  0.46154543    -0.84100
O268        O  0.81024458  0.27730761  0.46732709    -2.18900
O269        O  0.84533975  0.26069936  0.07902847    -0.67500
O270        O  0.89387215  0.31154941  0.04914839    -0.52100
C271        C  0.87968109  0.29607478  0.07432890     0.71200
O272        O  0.77107641  0.08328695  0.49689735    -0.60400
O273        O  0.71161414  0.07532796  0.98860365    -0.52400
C274        C  0.73625999  0.05987196  0.99116016     0.73000
O275        O  0.90553300  0.20747555  0.49834057    -0.71800
O276        O  0.92583609  0.27819505  0.50190754    -0.50500
C277        C  0.93434188  0.24776585  0.50016086     0.74400
O278        O  0.73622432  0.12980320  0.06002139    -0.67200
O279        O  0.67840611  0.11213809  0.03405088    -0.54400
C280        C  0.69613232  0.11378877  0.05824271     0.72800
Zr281      Zr  0.78446923  0.20524204  0.05420386     2.77500
O282        O  0.79584317  0.17928758  0.09963041    -0.97900
O283        O  0.74049931  0.22142095  0.08496837    -0.78700
Zr284      Zr  0.82580303  0.16233445  0.49831771     2.70100
O285        O  0.85265900  0.13368943  0.03645599    -0.80000
O286        O  0.84877429  0.12999145  0.46213189    -0.99100
Zr287      Zr  0.71739350  0.14395679  0.98962015     2.21500
Zr288      Zr  0.86254083  0.28460768  0.50153340     2.11100
O289        O  0.84611129  0.21971565  0.02814789    -2.47800
O290        O  0.77077892  0.14927757  0.02215464    -0.79800
O291        O  0.80448574  0.26855565  0.02796154    -0.72000
O292        O  0.77378313  0.15625482  0.46455278    -2.32900
O293        O  0.73024823  0.19918645  0.02297831    -2.29100
O294        O  0.84933930  0.22577256  0.47104852    -0.73700
H295        H  0.82007161  0.30291436  0.45606024     0.78300
H296        H  0.76670496  0.13257175  0.45183027     0.79400
H297        H  0.86850462  0.22402026  0.04122793     0.81600
H298        H  0.70494944  0.19250300  0.03369145     0.79200
H299        H  0.81686542  0.20894311  0.37960369     0.42200
H300        H  0.87018661  0.15429788  0.45061465     0.41200
H301        H  0.85168496  0.10782288  0.02870859     0.40900
H302        H  0.82560820  0.18552595  0.09907148     0.38800
H303        H  0.75424397  0.25291318  0.08426388     0.41900
H304        H  0.69742975  0.26024304  0.03915379     0.36700
H305        H  0.75763714  0.32033112  0.44806301     0.42800
H306        H  0.81443865  0.27651599  0.39062449     0.39300
H307        H  0.79550019  0.19855913  0.11451231     0.44200
H308        H  0.71107633  0.30154640  0.02108446     0.42900
H309        H  0.76490908  0.24976308  0.39391348     0.43000
H310        H  0.86538361  0.11987991  0.47294108     0.43400
O311        O  0.32681015  0.78067687  0.98494278    -0.75500
O312        O  0.35327931  0.85266282  0.98633304    -0.54400
C313        C  0.35759347  0.81490043  0.48363722     0.78200
O314        O  0.12728454  0.73840739  0.42909879    -0.60100
O315        O  0.10167977  0.67953527  0.45596367    -0.53100
C316        C  0.10518698  0.69798249  0.43171185     0.70300
O317        O  0.26178292  0.83361872  0.41046595    -0.74600
O318        O  0.31571346  0.87753813  0.44050485    -0.55200
C319        C  0.29923515  0.86496853  0.41532726     0.76300
O320        O  0.20034983  0.65926710  0.49805844    -0.59800
O321        O  0.13166913  0.64340326  0.50279308    -0.52900
C322        C  0.16037981  0.63243436  0.50066949     0.72900
Zr323      Zr  0.25050551  0.73795125  0.99177263     2.54700
O324        O  0.26816091  0.69523366  0.46076779    -0.80400
O325        O  0.28251988  0.71269759  0.02665471    -0.93800
Zr326      Zr  0.20311898  0.77774644  0.43636068     2.64700
O327        O  0.21071934  0.72673035  0.40675679    -0.98700
O328        O  0.18523300  0.79776625  0.39093519    -0.80800
O329        O  0.26472500  0.78991264  0.46151599    -0.84100
O330        O  0.18983758  0.72074121  0.46738333    -2.18900
O331        O  0.15919257  0.73679990  0.07842772    -0.67500
O332        O  0.10944860  0.68692635  0.04853062    -0.52100
C333        C  0.12412064  0.70214182  0.07373100     0.71200
O334        O  0.22823078  0.91528966  0.49304742    -0.60400
O335        O  0.29005788  0.92720910  0.99136676    -0.52400
C336        C  0.26234453  0.93940855  0.99418440     0.73000
O337        O  0.09388780  0.79113112  0.49767300    -0.71800
O338        O  0.07355624  0.72049242  0.50211893    -0.50500
C339        C  0.06504868  0.75090616  0.50040428     0.74400
O340        O  0.26711093  0.86644983  0.06143389    -0.67200
O341        O  0.32520204  0.88697503  0.03494845    -0.54400
C342        C  0.30733768  0.88366138  0.05933155     0.72800
Zr343      Zr  0.22017792  0.79115212  0.05341504     2.77500
O344        O  0.20682979  0.80605384  0.10203134    -0.97900
O345        O  0.26654862  0.77325875  0.08008787    -0.78700
Zr346      Zr  0.17380549  0.83634928  0.49509946     2.70100
O347        O  0.14887003  0.86474144  0.03704057    -0.80000
O348        O  0.15154552  0.86192102  0.45417567    -0.99100
Zr349      Zr  0.28711767  0.85774131  0.98995455     2.21500
Zr350      Zr  0.13712328  0.71461966  0.50078825     2.11100
O351        O  0.15757757  0.77733012  0.02868809    -2.47800
O352        O  0.23229877  0.84843057  0.02306155    -0.79800
O353        O  0.19861321  0.72840254  0.02619112    -0.72000
O354        O  0.22684360  0.84179704  0.46253548    -2.32900
O355        O  0.27370661  0.79930058  0.02092656    -2.29100
O356        O  0.15101346  0.77222738  0.46900259    -0.73700
H357        H  0.17971989  0.69469296  0.45654583     0.78300
H358        H  0.23404412  0.86514454  0.44949633     0.79400
H359        H  0.13547171  0.77268064  0.04211119     0.81600
H360        H  0.29920542  0.80532875  0.03114980     0.79200
H361        H  0.17149024  0.81428497  0.39642954     0.42200
H362        H  0.13179512  0.83575172  0.44340110     0.41200
H363        H  0.13583455  0.84159984  0.05144763     0.40900
H364        H  0.23299778  0.81345291  0.11290872     0.38800
H365        H  0.24767985  0.75207029  0.09447219     0.41900
H366        H  0.28137130  0.68750790  0.01753137     0.36700
H367        H  0.28232426  0.68324734  0.47245379     0.42800
H368        H  0.18307373  0.71024464  0.39675621     0.39300
H369        H  0.20636338  0.83301498  0.10070068     0.44200
H370        H  0.26158612  0.70075494  0.04247337     0.42900
H371        H  0.23095938  0.74432340  0.39153497     0.43000
H372        H  0.13315914  0.87197700  0.46246572     0.43400
O373        O  0.57775789  0.83584102  0.41381281    -0.75500
O374        O  0.57758597  0.88575241  0.44331705    -0.54400
C375        C  0.57711125  0.87041601  0.41816117     0.78200
O376        O  0.45091648  0.67072145  0.51017973    -0.60100
O377        O  0.49630085  0.64481323  0.51179603    -0.53100
C378        C  0.45874930  0.64014897  0.51334045     0.70300
O379        O  0.45992627  0.79908784  0.99391076    -0.74600
O380        O  0.51402732  0.86800552  0.98971462    -0.55200
C381        C  0.47280239  0.83615679  0.48936696     0.76300
O382        O  0.60053443  0.72767257  0.43863921    -0.59800
O383        O  0.55791967  0.66999266  0.46412150    -0.52900
C384        C  0.57429528  0.68773344  0.44000965     0.72900
Zr385      Zr  0.57639944  0.77824959  0.44101008     2.54700
O386        O  0.51923768  0.73198805  0.40833785    -0.80400
O387        O  0.62330314  0.79598117  0.39965663    -0.93800
Zr388      Zr  0.48624934  0.75012086  0.00148540     2.64700
O389        O  0.43978427  0.71608498  0.45572706    -0.98700
O390        O  0.44086976  0.73834293  0.04285803    -0.80800
O391        O  0.53208171  0.79861644  0.46500482    -0.84100
O392        O  0.52612033  0.72405464  0.47211948    -2.18900
O393        O  0.68939061  0.77346811  0.50481052    -0.67500
O394        O  0.63042460  0.70682585  0.50941759    -0.52100
C395        C  0.67023072  0.73089747  0.00593726     0.71200
O396        O  0.61480976  0.87702987  0.06114742    -0.60400
O397        O  0.57932470  0.90014355  0.03524699    -0.52400
C398        C  0.59386383  0.89629614  0.05946767     0.73000
O399        O  0.57415515  0.74211269  0.08634061    -0.71800
O400        O  0.55948487  0.68612752  0.05693341    -0.50500
C401        C  0.56424039  0.70328919  0.08198561     0.74400
O402        O  0.69726165  0.90750632  0.50044484    -0.67200
O403        O  0.64625260  0.92569737  0.49338560    -0.54400
C404        C  0.68903498  0.93526212  0.99477216     0.72800
Zr405      Zr  0.66428995  0.82716812  0.50154538     2.77500
O406        O  0.71718611  0.85241678  0.03803959    -0.97900
O407        O  0.71607266  0.84899949  0.46292255    -0.78700
Zr408      Zr  0.57828723  0.80019974  0.05864869     2.70100
O409        O  0.61697314  0.82311774  0.10383544    -0.80000
O410        O  0.52069241  0.79356297  0.08876965    -0.99100
Zr411      Zr  0.57982758  0.86290785  0.99183979     2.21500
Zr412      Zr  0.56625636  0.71104086  0.50749746     2.11100
O413        O  0.61781838  0.77505784  0.03323418    -2.47800
O414        O  0.62383651  0.85013759  0.02419179    -0.79800
O415        O  0.61620575  0.76511088  0.47549539    -0.72000
O416        O  0.53409814  0.81225966  0.02709130    -2.32900
O417        O  0.62293554  0.84051287  0.46743500    -2.29100
O418        O  0.52784776  0.73741616  0.03449124    -0.73700
H419        H  0.50734250  0.69845628  0.46150349     0.78300
H420        H  0.51836813  0.82273439  0.03756634     0.79400
H421        H  0.63385581  0.76816229  0.04646430     0.81600
H422        H  0.64165162  0.86294830  0.45446063     0.79200
H423        H  0.41257738  0.72961660  0.03462438     0.42200
H424        H  0.50809372  0.76463679  0.09717764     0.41200
H425        H  0.64729597  0.83646745  0.09834772     0.40900
H426        H  0.70325830  0.85914149  0.05375742     0.38800
H427        H  0.69868835  0.83845694  0.44525965     0.41900
H428        H  0.64465526  0.82666951  0.40188355     0.36700
H429        H  0.52682961  0.74752540  0.38986455     0.42800
H430        H  0.41081847  0.70763894  0.46245836     0.39300
H431        H  0.71779783  0.82694727  0.04490963     0.44200
H432        H  0.60606367  0.79459001  0.38283881     0.42900
H433        H  0.44781883  0.74088679  0.44304428     0.43000
H434        H  0.53510189  0.81313642  0.10506657     0.43400
O435        O  0.22164817  0.54686138  0.99603887    -0.75500
O436        O  0.15004981  0.50066256  0.99705154    -0.54400
C437        C  0.18052659  0.53715232  0.49709532     0.78200
O438        O  0.25759915  0.38791135  0.43540148    -0.60100
O439        O  0.31603369  0.41981101  0.46283726    -0.53100
C440        C  0.29781656  0.40617978  0.43827922     0.70300
O441        O  0.16233635  0.42731231  0.42229536    -0.74600
O442        O  0.11887750  0.43555713  0.45343021    -0.55200
C443        C  0.13153934  0.43346261  0.42787922     0.76300
O444        O  0.33705200  0.53778590  0.50961917    -0.59800
O445        O  0.35248484  0.48427390  0.50989739    -0.52900
C446        C  0.36357297  0.52432794  0.51037902     0.72900
Zr447      Zr  0.26423525  0.51315311  0.00344316     2.54700
O448        O  0.29528974  0.56341358  0.46778660    -0.80400
O449        O  0.28767801  0.56447944  0.04266536    -0.93800
Zr450      Zr  0.21688649  0.42144013  0.44648089     2.64700
O451        O  0.26585554  0.48066071  0.41610460    -0.98700
O452        O  0.19076418  0.38029556  0.40240617    -0.80800
O453        O  0.20570169  0.47027971  0.47326769    -0.84100
O454        O  0.27479034  0.46526964  0.47694177    -2.18900
O455        O  0.26506966  0.41818517  0.08587932    -0.67500
O456        O  0.31391641  0.41990910  0.05462802    -0.52100
C457        C  0.29949387  0.41848375  0.08019100     0.71200
O458        O  0.08129664  0.30666010  0.50361809    -0.60400
O459        O  0.07473618  0.36622128  0.50216896    -0.52400
C460        C  0.06381913  0.32676313  0.00351667     0.73000
O461        O  0.20687228  0.29726412  0.50398091    -0.71800
O462        O  0.27725018  0.34859367  0.50813650    -0.50500
C463        C  0.24724203  0.30926814  0.50588750     0.74400
O464        O  0.13821314  0.40295976  0.07459407    -0.67200
O465        O  0.11915976  0.43993442  0.04571784    -0.54400
C466        C  0.12098508  0.42555762  0.07070280     0.72800
Zr467      Zr  0.20951711  0.42253567  0.06165575     2.77500
O468        O  0.18188624  0.37481283  0.10286358    -0.97900
O469        O  0.23143425  0.48269842  0.09411691    -0.78700
Zr470      Zr  0.16002840  0.33054155  0.50392177     2.70100
O471        O  0.13323692  0.27415517  0.03671340    -0.80000
O472        O  0.13158209  0.27958935  0.46449758    -0.99100
Zr473      Zr  0.14369721  0.42967255  0.50137365     2.21500
Zr474      Zr  0.28169344  0.41753865  0.50868870     2.11100
O475        O  0.22279458  0.37578877  0.03412241    -2.47800
O476        O  0.15350190  0.38078739  0.02969028    -0.79800
O477        O  0.27216968  0.46675587  0.03523617    -0.72000
O478        O  0.15383787  0.37986883  0.47320914    -2.32900
O479        O  0.20360631  0.47257624  0.03224802    -2.29100
O480        O  0.22328160  0.37364917  0.47737428    -0.73700
H481        H  0.30036947  0.48188798  0.46582949     0.78300
H482        H  0.13012537  0.36424431  0.46031965     0.79400
H483        H  0.22739906  0.35754216  0.04685674     0.81600
H484        H  0.19799550  0.49142625  0.04361014     0.79200
H485        H  0.17687759  0.35015364  0.40871622     0.42200
H486        H  0.11105584  0.28561413  0.45474080     0.41200
H487        H  0.12287430  0.24804669  0.02492697     0.40900
H488        H  0.19124128  0.35376434  0.10014318     0.38800
H489        H  0.23597765  0.47262690  0.11277669     0.41900
H490        H  0.26240001  0.56641777  0.04792491     0.36700
H491        H  0.30901509  0.59130616  0.47778898     0.42800
H492        H  0.28367885  0.47072551  0.40676632     0.39300
H493        H  0.19822731  0.39212512  0.11961030     0.44200
H494        H  0.30730153  0.59229527  0.03359159     0.42900
H495        H  0.24782997  0.48130223  0.40045329     0.43000
H496        H  0.15555778  0.28955401  0.45085043     0.43400
O497        O  0.42495579  0.16345385  0.41196417    -0.75500
O498        O  0.42249638  0.11215233  0.44133593    -0.54400
C499        C  0.42465582  0.12839746  0.41629021     0.78200
O500        O  0.54818746  0.32691059  0.50805853    -0.60100
O501        O  0.50285293  0.35285656  0.50999831    -0.53100
C502        C  0.54045713  0.35750085  0.51127898     0.70300
O503        O  0.55580513  0.23863684  0.99101489    -0.74600
O504        O  0.51432752  0.16616653  0.98792516    -0.55200
C505        C  0.52727138  0.16251656  0.48717397     0.76300
O506        O  0.39833335  0.26940164  0.43650376    -0.59800
O507        O  0.44025441  0.32732595  0.46205005    -0.52900
C508        C  0.42418486  0.30941943  0.43787674     0.72900
Zr509      Zr  0.42412566  0.22020789  0.43878427     2.54700
O510        O  0.48310793  0.26867741  0.40808897    -0.80400
O511        O  0.37987083  0.20251765  0.39594655    -0.93800
Zr512      Zr  0.51636497  0.27563613  0.99694744     2.64700
O513        O  0.56080453  0.28346550  0.45515705    -0.98700
O514        O  0.57340282  0.30629017  0.03230013    -0.80800
O515        O  0.46773133  0.19934036  0.46313076    -0.84100
O516        O  0.47342825  0.27408532  0.47048684    -2.18900
O517        O  0.30915885  0.22357433  0.50300773    -0.67500
O518        O  0.36800946  0.29022257  0.50804068    -0.52100
C519        C  0.32740629  0.26488523  0.50642893     0.71200
O520        O  0.40610064  0.13749603  0.06163395    -0.60400
O521        O  0.44981229  0.12467439  0.03566740    -0.52400
C522        C  0.43135234  0.12308930  0.05954549     0.73000
O523        O  0.42526927  0.26536099  0.08364040    -0.71800
O524        O  0.41995207  0.31288281  0.05465378    -0.50500
C525        C  0.42335678  0.29917062  0.07954240     0.74400
O526        O  0.30179470  0.09042802  0.49618933    -0.67200
O527        O  0.35304358  0.07226572  0.49037761    -0.54400
C528        C  0.34127784  0.06509052  0.99275936     0.72800
Zr529      Zr  0.33483890  0.17050409  0.49829876     2.77500
O530        O  0.29149681  0.13187933  0.03982590    -0.97900
O531        O  0.28492194  0.15177096  0.45873202    -0.78700
Zr532      Zr  0.43028874  0.21205274  0.05637267     2.70100
O533        O  0.39186224  0.18742248  0.10151391    -0.80000
O534        O  0.49294568  0.22996667  0.08526969    -0.99100
Zr535      Zr  0.44172780  0.15545789  0.99099698     2.21500
Zr536      Zr  0.43257425  0.28655370  0.50553386     2.11100
O537        O  0.37845642  0.22102179  0.03164623    -2.47800
O538        O  0.39115412  0.15585145  0.02365652    -0.79800
O539        O  0.38348506  0.23286897  0.47289607    -0.72000
O540        O  0.48115241  0.21222556  0.02446534    -2.32900
O541        O  0.37708630  0.15762378  0.46468378    -2.29100
O542        O  0.46886682  0.27704139  0.03108652    -0.73700
H543        H  0.49230020  0.29991981  0.46015916     0.78300
H544        H  0.50157802  0.20779563  0.03478309     0.79400
H545        H  0.35943105  0.22295762  0.04517080     0.81600
H546        H  0.35867181  0.13539460  0.45145462     0.79200
H547        H  0.59971664  0.31547121  0.02110306     0.42200
H548        H  0.49399482  0.25035883  0.09980305     0.41200
H549        H  0.41404767  0.19413005  0.11616566     0.40900
H550        H  0.31001972  0.13115866  0.05509034     0.38800
H551        H  0.30104890  0.17360465  0.44391763     0.41900
H552        H  0.35971167  0.17138229  0.39712001     0.36700
H553        H  0.47294946  0.25941067  0.38825655     0.42800
H554        H  0.58984562  0.29853927  0.46338533     0.39300
H555        H  0.28515401  0.15408222  0.04618569     0.44200
H556        H  0.39872844  0.20604395  0.37962300     0.42900
H557        H  0.55915530  0.25905539  0.44453908     0.43000
H558        H  0.48526449  0.20369835  0.09622600     0.43400
C559        C  0.30331365  0.28866698  0.50899742    -0.16600
C560        C  0.26144712  0.27625529  0.50501426    -0.31800
H561        H  0.32445937  0.32223430  0.51389708     0.12400
H562        H  0.29625428  0.29758569  0.03210375     0.13000
C563        C  0.42008963  0.59834295  0.52005257    -0.16600
C564        C  0.40973249  0.55880915  0.51076254    -0.31800
H565        H  0.39504044  0.60174649  0.53010089     0.12400
H566        H  0.43685164  0.55709804  0.00236161     0.13000
C567        C  0.27806861  0.98698905  0.99476333    -0.16600
C568        C  0.31977816  0.01688899  0.99166404    -0.31800
H569        H  0.25516321  0.99731321  0.99807689     0.12400
H570        H  0.24844122  0.00434545  0.49919890     0.13000
C571        C  0.17758738  0.57602544  0.49170522    -0.16600
C572        C  0.14874141  0.58626120  0.50152839    -0.31800
H573        H  0.20775597  0.60278546  0.97927703     0.12400
H574        H  0.11971405  0.56254599  0.51199653     0.13000
C575        C  0.39914662  0.81712139  0.47913057    -0.16600
C576        C  0.43869749  0.84777125  0.48726140    -0.31800
H577        H  0.39548747  0.78713525  0.47147029     0.12400
H578        H  0.44668647  0.88286480  0.99588132     0.13000
C579        C  0.72277480  0.98227714  0.99524402    -0.16600
C580        C  0.71158925  0.01196071  0.98958513    -0.31800
H581        H  0.75078772  0.99380962  0.50313281     0.12400
H582        H  0.67849068  0.99983141  0.98387802     0.13000
C583        C  0.01621574  0.30340377  0.00636523    -0.16600
C584        C  0.98645902  0.26228307  0.00062529    -0.31800
H585        H  0.99942587  0.32412949  0.50927019     0.12400
H586        H  0.99617096  0.23949923  0.99489278     0.13000
C587        C  0.60086282  0.18113716  0.47682270    -0.16600
C588        C  0.56136433  0.15085067  0.48527057    -0.31800
H589        H  0.60445170  0.21078032  0.46851518     0.12400
H590        H  0.61945756  0.23386844  0.98465578     0.13000
C591        C  0.98511650  0.69138704  0.99952546    -0.16600
C592        C  0.01493281  0.73344244  0.00227940    -0.31800
H593        H  0.00024312  0.67557975  0.51349856     0.12400
H594        H  0.00515593  0.75687764  0.00526255     0.13000
C595        C  0.69486813  0.70802575  0.50948128    -0.16600
C596        C  0.73708352  0.72095823  0.50733412    -0.31800
H597        H  0.67337161  0.67398900  0.51245396     0.12400
H598        H  0.75921708  0.75229337  0.00235478     0.13000
C599        C  0.82319272  0.42322530  0.48879382    -0.16600
C600        C  0.85064076  0.41270149  0.50083328    -0.31800
H601        H  0.79631296  0.39842019  0.47694209     0.12400
H602        H  0.87902356  0.43464636  0.01065239     0.08500
C603        C  0.57956510  0.39919348  0.51757043    -0.16600
C604        C  0.58945950  0.43914806  0.50974775    -0.31800
H605        H  0.55321146  0.43674398  0.03137123     0.12400
H606        H  0.56527046  0.44519896  0.50126654     0.13000
C607        C  0.42368585  0.30562357  0.13308604    -0.13500
C608        C  0.42831502  0.32438322  0.10578397     0.08600
C609        C  0.44388902  0.36830673  0.10414621    -0.13500
C610        C  0.45656041  0.39318474  0.12902383    -0.13500
C611        C  0.45379395  0.37477854  0.15625543     0.08600
C612        C  0.43627523  0.33051469  0.15801754    -0.13500
H613        H  0.41156557  0.27168046  0.13515125     0.12600
H614        H  0.44824144  0.38380275  0.08356747     0.12600
H615        H  0.46940471  0.42720616  0.12671475     0.12600
H616        H  0.43305074  0.31522020  0.17853779     0.12600
C617        C  0.48992916  0.39584453  0.38422263    -0.13500
C618        C  0.47041853  0.37627306  0.35803661     0.08600
C619        C  0.43559358  0.33458095  0.35836495    -0.13500
C620        C  0.41974361  0.31345686  0.38446524    -0.13500
C621        C  0.43860292  0.33351134  0.41069663     0.08600
C622        C  0.47417018  0.37476648  0.41023706    -0.13500
H623        H  0.51674131  0.42821276  0.38463484     0.12600
H624        H  0.41934262  0.31917981  0.33864579     0.12600
H625        H  0.39241386  0.28146767  0.38408212     0.12600
H626        H  0.48996692  0.39071798  0.42994263     0.12600
C627        C  0.67023684  0.57419565  0.15979008    -0.13500
C628        C  0.62712778  0.56124017  0.15799836     0.08600
C629        C  0.60928268  0.55973341  0.13075891    -0.13500
C630        C  0.63324503  0.56775377  0.10573640    -0.13500
C631        C  0.67559497  0.57767625  0.10745567     0.08600
C632        C  0.69422653  0.58251495  0.13483973    -0.13500
H633        H  0.68498917  0.57609151  0.18032398     0.12600
H634        H  0.57617652  0.55071753  0.12861442     0.12600
H635        H  0.61806605  0.56414276  0.08512953     0.12600
H636        H  0.72712089  0.59093191  0.13710270     0.12600
C637        C  0.66954291  0.58473971  0.35959164    -0.13500
C638        C  0.62567544  0.55576782  0.36055243     0.08600
C639        C  0.60603409  0.54210774  0.38768778    -0.13500
C640        C  0.62965832  0.55592864  0.41302569    -0.13500
C641        C  0.67368550  0.58390015  0.41207490     0.08600
C642        C  0.69324457  0.59870295  0.38505264    -0.13500
H643        H  0.68554292  0.59647586  0.33923442     0.12600
H644        H  0.57216828  0.51994577  0.38947627     0.12600
H645        H  0.61360305  0.54341599  0.43328270     0.12600
H646        H  0.72725926  0.62017236  0.38346446     0.12600
C647        C  0.52212670  0.60708978  0.13083522    -0.13500
C648        C  0.53323847  0.62592904  0.15835336     0.08600
C649        C  0.55586785  0.67058280  0.16037906    -0.13500
C650        C  0.56707808  0.69567594  0.13551482    -0.13500
C651        C  0.55595170  0.67668414  0.10804369     0.08600
C652        C  0.53340093  0.63207961  0.10608231    -0.13500
H653        H  0.50453455  0.57271960  0.12828512     0.12600
H654        H  0.56526053  0.68610825  0.18109679     0.12600
H655        H  0.58432237  0.73007461  0.13785753     0.12600
H656        H  0.52363285  0.61637922  0.08543169     0.12600
C657        C  0.50889536  0.60104641  0.38626568    -0.13500
C658        C  0.52921089  0.62015341  0.36023389     0.08600
C659        C  0.56469195  0.66149375  0.36069810    -0.13500
C660        C  0.58010048  0.68288255  0.38679519    -0.13500
C661        C  0.56020752  0.66340139  0.41288746     0.08600
C662        C  0.52414558  0.62244142  0.41228338    -0.13500
H663        H  0.48160975  0.56895689  0.38653903     0.12600
H664        H  0.58158145  0.67647995  0.34108925     0.12600
H665        H  0.60781755  0.71464036  0.38652541     0.12600
H666        H  0.50755176  0.60698421  0.43187552     0.12600
C667        C  0.39204668  0.44991013  0.12965392    -0.13500
C668        C  0.37199960  0.44006890  0.15684746     0.08600
C669        C  0.32754673  0.41712798  0.15799978    -0.13500
C670        C  0.30385004  0.40693830  0.13264569    -0.13500
C671        C  0.32414427  0.41964309  0.10566628     0.08600
C672        C  0.36840053  0.43973843  0.10439857    -0.13500
H673        H  0.42636160  0.46702175  0.12771966     0.12600
H674        H  0.31114663  0.40834122  0.17840488     0.12600
H675        H  0.26951475  0.39078493  0.13425052     0.12600
H676        H  0.38488343  0.45001711  0.08406400     0.12600
C677        C  0.39120943  0.45063910  0.38732420    -0.13500
C678        C  0.37109658  0.44074482  0.36015554     0.08600
C679        C  0.32660602  0.41616198  0.35914895    -0.13500
C680        C  0.30296332  0.40291224  0.38463742    -0.13500
C681        C  0.32323291  0.41407022  0.41172551     0.08600
C682        C  0.36766350  0.43761748  0.41266958    -0.13500
H683        H  0.42551534  0.46926429  0.38920675     0.12600
H684        H  0.31009165  0.40751007  0.33876670     0.12600
H685        H  0.26861145  0.38498210  0.38305432     0.12600
H686        H  0.38430411  0.44713812  0.43299694     0.12600
C687        C  0.91093977  0.51217963  0.12256321    -0.13500
C688        C  0.90689839  0.52792105  0.14935913     0.08600
C689        C  0.89383139  0.55812267  0.14994966    -0.13500
C690        C  0.88583682  0.57284487  0.12431840    -0.13500
C691        C  0.89037849  0.55744248  0.09752985     0.08600
C692        C  0.90273925  0.52670209  0.09700238    -0.13500
H693        H  0.92115778  0.48893230  0.12127726     0.12600
H694        H  0.89117342  0.57140929  0.17010642     0.12600
H695        H  0.87595032  0.59630532  0.12557178     0.12600
H696        H  0.90578868  0.51360456  0.07687437     0.12600
C697        C  0.89846620  0.56818817  0.34918015    -0.13500
C698        C  0.91750918  0.54312374  0.35104739     0.08600
C699        C  0.92572817  0.53227685  0.37845834    -0.13500
C700        C  0.91372612  0.54470330  0.40332745    -0.13500
C701        C  0.89293259  0.56803643  0.40145844     0.08600
C702        C  0.88644605  0.58066919  0.37414738    -0.13500
H703        H  0.89258759  0.57784526  0.32852714     0.12600
H704        H  0.94079916  0.51329338  0.38083765     0.12600
H705        H  0.91883159  0.53419448  0.42390331     0.12600
H706        H  0.87070884  0.59905940  0.37199450     0.12600
C707        C  0.90186112  0.32677212  0.15262593    -0.13500
C708        C  0.93073857  0.37061533  0.15077306     0.08600
C709        C  0.94760686  0.38852465  0.12361964    -0.13500
C710        C  0.93325113  0.36385531  0.09870802    -0.13500
C711        C  0.90192875  0.32066295  0.10038670     0.08600
C712        C  0.88770227  0.30205704  0.12773386    -0.13500
H713        H  0.88895652  0.31185797  0.17313824     0.12600
H714        H  0.97090433  0.42213836  0.12138217     0.12600
H715        H  0.94510270  0.37910106  0.07812954     0.12600
H716        H  0.86401785  0.26857855  0.12993704     0.12600
C717        C  0.92638808  0.39353350  0.37954350    -0.13500
C718        C  0.92718169  0.37450318  0.35329287     0.08600
C719        C  0.91900532  0.33246604  0.35352054    -0.13500
C720        C  0.91039149  0.31004780  0.37943196    -0.13500
C721        C  0.90965925  0.32917580  0.40563411     0.08600
C722        C  0.91786182  0.37122366  0.40534338    -0.13500
H723        H  0.93233186  0.42592730  0.38019428     0.12600
H724        H  0.91993439  0.31720031  0.33380623     0.12600
H725        H  0.90359353  0.27737548  0.37888144     0.12600
H726        H  0.91636192  0.38647118  0.42492020     0.12600
C727        C  0.07765609  0.47713943  0.12071884    -0.13500
C728        C  0.08624368  0.46630111  0.14807997     0.08600
C729        C  0.10369226  0.43975291  0.14944906    -0.13500
C730        C  0.11295065  0.42507779  0.12423501    -0.13500
C731        C  0.10526333  0.43671440  0.09689178     0.08600
C732        C  0.08719497  0.46271503  0.09550712    -0.13500
H733        H  0.06355337  0.49705188  0.11867540     0.12600
H734        H  0.10979309  0.42994612  0.16997293     0.12600
H735        H  0.12707592  0.40520061  0.12629134     0.12600
H736        H  0.08110176  0.47253977  0.07498703     0.12600
C737        C  0.09080378  0.46360947  0.40419082    -0.13500
C738        C  0.11189622  0.44054615  0.40231154     0.08600
C739        C  0.11956898  0.42911985  0.37492677    -0.13500
C740        C  0.10762559  0.44159068  0.34997096    -0.13500
C741        C  0.08734649  0.46543772  0.35177876     0.08600
C742        C  0.07878371  0.47603021  0.37923182    -0.13500
H743        H  0.08498387  0.47337626  0.42482947     0.12600
H744        H  0.13571461  0.41113678  0.37269688     0.12600
H745        H  0.11400825  0.43232547  0.32933587     0.12600
H746        H  0.06294261  0.49429863  0.38154292     0.12600
C747        C  0.06824093  0.63592180  0.09839293    -0.13500
C748        C  0.10115988  0.67848077  0.09985069     0.08600
C749        C  0.11554135  0.69748816  0.12711423    -0.13500
C750        C  0.09978933  0.67360499  0.15221208    -0.13500
C751        C  0.06919849  0.63019730  0.15064204     0.08600
C752        C  0.05230697  0.61209578  0.12350778    -0.13500
H753        H  0.05620803  0.62044537  0.07788194     0.12600
H754        H  0.14044841  0.73056351  0.12914424     0.12600
H755        H  0.11290419  0.68866407  0.17267449     0.12600
H756        H  0.02779723  0.57884385  0.12147978     0.12600
C757        C  0.07206587  0.62872377  0.40551818    -0.13500
C758        C  0.08698817  0.67254358  0.40528177     0.08600
C759        C  0.09065099  0.69287359  0.37873191    -0.13500
C760        C  0.08099406  0.67002680  0.35289939    -0.13500
C761        C  0.06739929  0.62640817  0.35314625     0.08600
C762        C  0.06254651  0.60603777  0.37988860    -0.13500
H763        H  0.06940372  0.61218881  0.42542383     0.12600
H764        H  0.10223852  0.72680218  0.37781868     0.12600
H765        H  0.08444075  0.68648177  0.33284465     0.12600
H766        H  0.05192439  0.57232251  0.38118583     0.12600
C767        C  0.33573557  0.90413309  0.13828493    -0.13500
C768        C  0.37754422  0.91205362  0.13824637     0.08600
C769        C  0.39635101  0.91163244  0.11193073    -0.13500
C770        C  0.37415605  0.90398278  0.08619914    -0.13500
C771        C  0.33256738  0.89661746  0.08609769     0.08600
C772        C  0.31355482  0.89675257  0.11241593    -0.13500
H773        H  0.32082612  0.90521761  0.15810073     0.12600
H774        H  0.42869134  0.91782630  0.11118901     0.12600
H775        H  0.38939372  0.90324757  0.06644763     0.12600
H776        H  0.28150795  0.89130044  0.11303824     0.12600
C777        C  0.33041176  0.89179425  0.33735129    -0.13500
C778        C  0.37472138  0.91674750  0.33949644     0.08600
C779        C  0.39354265  0.92776477  0.36701051    -0.13500
C780        C  0.36893699  0.91267897  0.39170782    -0.13500
C781        C  0.32486512  0.88619174  0.38958927     0.08600
C782        C  0.30570485  0.87666920  0.36216843    -0.13500
H783        H  0.31494458  0.88333041  0.31660019     0.12600
H784        H  0.42765923  0.94746882  0.36964977     0.12600
H785        H  0.38464231  0.92051833  0.41238730     0.12600
H786        H  0.27158480  0.85656115  0.35979810     0.12600
C787        C  0.58598900  0.91574820  0.13866818    -0.13500
C788        C  0.54998442  0.92024821  0.13893305     0.08600
C789        C  0.53001555  0.91867174  0.11269063    -0.13500
C790        C  0.54568630  0.91315757  0.08682340    -0.13500
C791        C  0.58160505  0.90866726  0.08641728     0.08600
C792        C  0.60162052  0.90990950  0.11260302    -0.13500
H793        H  0.60262472  0.91789179  0.15840559     0.12600
H794        H  0.50225117  0.92221005  0.11209771     0.12600
H795        H  0.52891002  0.91126774  0.06719633     0.12600
H796        H  0.62924685  0.90614812  0.11293497     0.12600
C797        C  0.55164328  0.93812423  0.36900026    -0.13500
C798        C  0.55455195  0.92347779  0.34145048     0.08600
C799        C  0.56897004  0.89433052  0.33948630    -0.13500
C800        C  0.57829104  0.87884066  0.36436898    -0.13500
C801        C  0.57350852  0.89207174  0.39194886     0.08600
C802        C  0.56107121  0.92275177  0.39383336    -0.13500
H803        H  0.54111676  0.96097374  0.37154649     0.12600
H804        H  0.57197892  0.88259789  0.31878867     0.12600
H805        H  0.58815477  0.85545397  0.36195830     0.12600
H806        H  0.55698704  0.93369769  0.41454291     0.12600
C807        C  0.60718458  0.08375116  0.11143118    -0.13500
C808        C  0.62676858  0.08489957  0.13779332     0.08600
C809        C  0.66905415  0.09419227  0.13759011    -0.13500
C810        C  0.69097740  0.10177042  0.11154613    -0.13500
C811        C  0.67121369  0.10058919  0.08521799     0.08600
C812        C  0.62907105  0.09156119  0.08553899    -0.13500
H813        H  0.57445093  0.07628494  0.11077407     0.12600
H814        H  0.68464656  0.09422950  0.15737125     0.12600
H815        H  0.72350194  0.10859562  0.11208040     0.12600
H816        H  0.61311020  0.09108427  0.06582767     0.12600
C817        C  0.67115354  0.11142016  0.33783649    -0.13500
C818        C  0.62732166  0.08333945  0.33979476     0.08600
C819        C  0.60868624  0.06906194  0.36710618    -0.13500
C820        C  0.63298167  0.08395436  0.39195099    -0.13500
C821        C  0.67645993  0.11346170  0.39008978     0.08600
C822        C  0.69552235  0.12629485  0.36274515    -0.13500
H823        H  0.68644231  0.12249964  0.31719445     0.12600
H824        H  0.57495349  0.04672689  0.36947564     0.12600
H825        H  0.61744705  0.07338879  0.41256499     0.12600
H826        H  0.72923817  0.14880175  0.36050076     0.12600
C827        C  0.43227751  0.09585589  0.13791451    -0.13500
C828        C  0.46351673  0.08430896  0.13813776     0.08600
C829        C  0.48329674  0.08447872  0.11208668    -0.13500
C830        C  0.47211852  0.09582596  0.08638214    -0.13500
C831        C  0.44060617  0.10696513  0.08604158     0.08600
C832        C  0.42074915  0.10681799  0.11209021    -0.13500
H833        H  0.41602884  0.09531603  0.15748464     0.12600
H834        H  0.50747551  0.07557681  0.11151900     0.12600
H835        H  0.48846453  0.09628949  0.06687826     0.12600
H836        H  0.39633493  0.11539815  0.11261923     0.12600
C837        C  0.43637425  0.10621561  0.33801600    -0.13500
C838        C  0.44932188  0.07597130  0.34033708     0.08600
C839        C  0.45019806  0.06018771  0.36790318    -0.13500
C840        C  0.44014855  0.07548174  0.39247221    -0.13500
C841        C  0.42910695  0.10715713  0.39024976     0.08600
C842        C  0.42639874  0.12158785  0.36262485    -0.13500
H843        H  0.43493250  0.11879649  0.31726951     0.12600
H844        H  0.45949367  0.03642231  0.37067595     0.12600
H845        H  0.44257913  0.06360546  0.41326215     0.12600
H846        H  0.41762391  0.14575975  0.35998841     0.12600
O847        O  0.46786594  0.08311478  0.78939915    -0.75500
O848        O  0.48392777  0.04465631  0.81995328    -0.54400
C849        C  0.47236096  0.07183192  0.81491426     0.78200
O850        O  0.38654631  0.92036431  0.68918280    -0.60100
O851        O  0.44278176  0.95841125  0.65959404    -0.53100
C852        C  0.40347747  0.93226029  0.66396712     0.70300
O853        O  0.38532231  0.92343085  0.78912621    -0.74600
O854        O  0.44063504  0.96002057  0.81974271    -0.55200
C855        C  0.40124466  0.93516855  0.81456352     0.76300
O856        O  0.46241342  0.07842451  0.68930092    -0.59800
O857        O  0.48489306  0.04420621  0.65970162    -0.52900
C858        C  0.46854122  0.06750320  0.66404869     0.72900
Zr859      Zr  0.47696825  0.06502107  0.73946498     2.54700
O860        O  0.40975144  0.06385912  0.74295496    -0.80400
O861        O  0.51430780  0.14257769  0.73632445    -0.93800
Zr862      Zr  0.41349528  0.93708918  0.73954313     2.64700
O863        O  0.34603077  0.93584949  0.74073972    -0.98700
O864        O  0.37461352  0.85935487  0.73910578    -0.80800
O865        O  0.45009774  0.00118341  0.76273968    -0.84100
O866        O  0.44292471  0.00087590  0.71236355    -2.18900
O867        O  0.61588399  0.08388242  0.69002506    -0.67500
O868        O  0.55995945  0.04712561  0.65990185    -0.52100
C869        C  0.59917412  0.07328430  0.66474194     0.71200
O870        O  0.54023611  0.92528940  0.78991889    -0.60400
O871        O  0.52141316  0.96142232  0.82057158    -0.52400
C872        C  0.53607365  0.93670976  0.81547466     0.73000
O873        O  0.53760366  0.92265328  0.69060084    -0.71800
O874        O  0.51643648  0.95729702  0.66032559    -0.50500
C875        C  0.53135490  0.93284550  0.66522150     0.74400
O876        O  0.61668818  0.08128943  0.78916929    -0.67200
O877        O  0.56109996  0.04532959  0.81954625    -0.54400
C878        C  0.60043093  0.07061388  0.81454784     0.72800
Zr879      Zr  0.58818459  0.06624174  0.73976186     2.77500
O880        O  0.65768987  0.07177837  0.74032730    -0.97900
O881        O  0.62348256  0.14382922  0.73989026    -0.78700
Zr882      Zr  0.52402736  0.93772276  0.74023542     2.70100
O883        O  0.58382403  0.92551217  0.74130921    -0.80000
O884        O  0.47649734  0.86066572  0.73919843    -0.99100
Zr885      Zr  0.50105246  0.00168922  0.79081293     2.21500
Zr886      Zr  0.50143310  0.00172311  0.68933582     2.11100
O887        O  0.55927414  0.00194300  0.71291014    -2.47800
O888        O  0.55211144  0.00211745  0.76303146    -0.79800
O889        O  0.53081343  0.06179795  0.71636462    -0.72000
O890        O  0.46694680  0.93401211  0.76757144    -2.32900
O891        O  0.53420311  0.06891494  0.76699520    -2.29100
O892        O  0.47124776  0.94190212  0.71655965    -0.73700
H893        H  0.42193599  0.00026207  0.69943795     0.78300
H894        H  0.45511165  0.91039231  0.78088145     0.79400
H895        H  0.58019328  0.00234987  0.70001527     0.81600
H896        H  0.54617526  0.09282371  0.78009261     0.79200
H897        H  0.38343692  0.85157475  0.72111071     0.42200
H898        H  0.45601775  0.85581366  0.72365984     0.41200
H899        H  0.60810140  0.95226485  0.73379330     0.40900
H900        H  0.65356458  0.04647892  0.72952759     0.38800
H901        H  0.65082934  0.15319306  0.74984148     0.41900
H902        H  0.54073752  0.15227373  0.74750399     0.36700
H903        H  0.38795155  0.03441934  0.73744658     0.42800
H904        H  0.34246049  0.94434653  0.72123781     0.39300
H905        H  0.67581704  0.09632054  0.72772989     0.44200
H906        H  0.49709523  0.15084333  0.74819602     0.42900
H907        H  0.32421071  0.90517160  0.74204964     0.43000
H908        H  0.49415819  0.84936636  0.73146328     0.43400
O909        O  0.05692735  0.62079326  0.80126274    -0.75500
O910        O  0.03069132  0.56379182  0.83106038    -0.54400
C911        C  0.04784353  0.60367018  0.82654199     0.78200
O912        O  0.91024599  0.52028473  0.70063407    -0.60100
O913        O  0.94686251  0.50127936  0.67062412    -0.53100
C914        C  0.92075169  0.51415985  0.67530364     0.70300
O915        O  0.91155134  0.52204757  0.80053209    -0.74600
O916        O  0.94990133  0.50556509  0.83075254    -0.55200
C917        C  0.92263562  0.51677525  0.82587150     0.76300
O918        O  0.06580763  0.62186638  0.70194130    -0.59800
O919        O  0.03143546  0.56545812  0.67164529    -0.52900
C920        C  0.05395761  0.60546003  0.67661339     0.72900
Zr921      Zr  0.05220020  0.59358220  0.75154694     2.54700
O922        O  0.04595595  0.65719181  0.74948309    -0.80400
O923        O  0.12910360  0.64001072  0.75463016    -0.93800
Zr924      Zr  0.92655134  0.50955927  0.75079646     2.64700
O925        O  0.90286781  0.56136644  0.75272865    -0.98700
O926        O  0.85180454  0.45413998  0.74974537    -0.80800
O927        O  0.99008186  0.54781109  0.77413148    -0.84100
O928        O  0.98901129  0.55385489  0.72402956    -2.18900
O929        O  0.08838911  0.48172387  0.70063683    -0.67500
O930        O  0.05288162  0.50181060  0.67050406    -0.52100
C931        C  0.07772321  0.48738095  0.67520055     0.71200
O932        O  0.94384583  0.38553853  0.80209352    -0.60400
O933        O  0.97067725  0.44272873  0.83179920    -0.52400
C934        C  0.95284015  0.40275139  0.82742857     0.73000
O935        O  0.93523433  0.38415689  0.70195362    -0.71800
O936        O  0.96907973  0.44003200  0.67123811    -0.50500
C937        C  0.94652006  0.40013895  0.67645211     0.74400
O938        O  0.08416106  0.47617881  0.80001370    -0.67200
O939        O  0.05115212  0.49822324  0.83080909    -0.54400
C940        C  0.07451842  0.48230990  0.82562994     0.72800
Zr941      Zr  0.07518352  0.49674083  0.75073804     2.77500
O942        O  0.11666978  0.46112161  0.75195175    -0.97900
O943        O  0.14665688  0.55892658  0.75084312    -0.78700
Zr944      Zr  0.94919559  0.41217258  0.75186924     2.70100
O945        O  0.95283253  0.34708098  0.75007318    -0.80000
O946        O  0.87224209  0.36677993  0.75521778    -0.99100
Zr947      Zr  0.00098978  0.50284498  0.80139925     2.21500
Zr948      Zr  0.00046811  0.50251705  0.70023326     2.11100
O949        O  0.01229166  0.45149593  0.72430256    -2.47800
O950        O  0.01182703  0.45765613  0.77423021    -0.79800
O951        O  0.05924713  0.54232405  0.72747369    -0.72000
O952        O  0.93441922  0.45884832  0.77867241    -2.32900
O953        O  0.06741936  0.54734272  0.77874786    -2.29100
O954        O  0.94207303  0.46338916  0.72783722    -0.73700
H955        H  0.98491745  0.57250011  0.71137708     0.78300
H956        H  0.91132521  0.44354138  0.79204966     0.79400
H957        H  0.01568831  0.43223256  0.71182228     0.81600
H958        H  0.09036789  0.56246979  0.79227249     0.79200
H959        H  0.84739269  0.44150453  0.73034352     0.42200
H960        H  0.86111123  0.37407987  0.73811685     0.41200
H961        H  0.97775821  0.35434131  0.73780982     0.40900
H962        H  0.09924315  0.43396443  0.74147268     0.38800
H963        H  0.15010501  0.57145931  0.73149061     0.41900
H964        H  0.13603173  0.63868967  0.77499783     0.36700
H965        H  0.01751973  0.64723569  0.74104035     0.42800
H966        H  0.92239853  0.58467852  0.73975324     0.39300
H967        H  0.14134710  0.47834495  0.73927571     0.44200
H968        H  0.13373594  0.66917081  0.75233028     0.42900
H969        H  0.87515487  0.54739540  0.74261665     0.43000
H970        H  0.86683294  0.33764013  0.75130747     0.43400
O971        O  0.51918945  0.60514244  0.80875164    -0.75500
O972        O  0.50262456  0.54935105  0.83845823    -0.54400
C973        C  0.51409829  0.58834895  0.83401327     0.78200
O974        O  0.38198085  0.44035531  0.70824342    -0.60100
O975        O  0.43826913  0.46765746  0.67790053    -0.53100
C976        C  0.39840140  0.44775287  0.68284851     0.70300
O977        O  0.38138918  0.44059813  0.80754883    -0.74600
O978        O  0.43794543  0.46585836  0.83764882    -0.55200
C979        C  0.39803720  0.44651458  0.83290298     0.76300
O980        O  0.52391885  0.60806405  0.70891397    -0.59800
O981        O  0.50912811  0.55402675  0.67803386    -0.52900
C982        C  0.52049269  0.59282270  0.68328021     0.72900
Zr983      Zr  0.50891904  0.57823402  0.75844026     2.54700
O984        O  0.45272855  0.59578939  0.75942656    -0.80400
O985        O  0.56021453  0.65457066  0.75764362    -0.93800
Zr986      Zr  0.40996239  0.45807331  0.75777388     2.64700
O987        O  0.36511122  0.48990551  0.75920575    -0.98700
O988        O  0.34571258  0.38807561  0.75598191    -0.80800
O989        O  0.46206642  0.51635285  0.78151858    -0.84100
O990        O  0.45727355  0.51978574  0.73048063    -2.18900
O991        O  0.61775837  0.55313118  0.70860317    -0.67500
O992        O  0.56149864  0.52615485  0.67813329    -0.52100
C993        C  0.60133667  0.54635136  0.68315070     0.71200
O994        O  0.47565495  0.38348259  0.80722590    -0.60400
O995        O  0.49505327  0.43926072  0.83752120    -0.52400
C996        C  0.48064956  0.39972359  0.83268641     0.73000
O997        O  0.47491576  0.38488649  0.70775562    -0.71800
O998        O  0.49208424  0.44015685  0.67753768    -0.50500
C999        C  0.47943061  0.40101446  0.68233732     0.74400
O1000       O  0.61768280  0.55046349  0.80841121    -0.67200
O1001       O  0.56059235  0.52317287  0.83809954    -0.54400
C1002       C  0.60056834  0.54323610  0.83368582     0.72800
Zr1003     Zr  0.58993735  0.53343042  0.75829388     2.77500
O1004       O  0.63279976  0.49933395  0.75921298    -0.97900
O1005       O  0.65557333  0.60235958  0.75737416    -0.78700
Zr1006     Zr  0.49143081  0.41357244  0.75755192     2.70100
O1007       O  0.55182336  0.40223786  0.75737376    -0.80000
O1008       O  0.44969821  0.33581544  0.75887800    -0.99100
Zr1009     Zr  0.49956596  0.49502342  0.80852574     2.21500
Zr1010     Zr  0.49989288  0.49642732  0.70723316     2.11100
O1011       O  0.54265612  0.47276720  0.73007778    -2.47800
O1012       O  0.53796070  0.47455983  0.78163917    -0.79800
O1013       O  0.54555938  0.55126937  0.73547661    -0.72000
O1014       O  0.44783334  0.43240358  0.78435380    -2.32900
O1015       O  0.55166406  0.55845022  0.78531657    -2.29100
O1016       O  0.45420299  0.44023802  0.73465521    -0.73700
H1017       H  0.44250462  0.52822848  0.71721756     0.78300
H1018       H  0.42837087  0.40952015  0.79671694     0.79400
H1019       H  0.55739776  0.46471515  0.71652296     0.81600
H1020       H  0.57036664  0.58106637  0.79817478     0.79200
H1021       H  0.35605714  0.36761842  0.75699360     0.42200
H1022       H  0.42349904  0.32805330  0.74791052     0.41200
H1023       H  0.55036863  0.38878552  0.77612010     0.40900
H1024       H  0.62290770  0.47971144  0.74257184     0.38800
H1025       H  0.64712261  0.62238929  0.74966945     0.41900
H1026       H  0.58326756  0.65831716  0.77072406     0.36700
H1027       H  0.43493538  0.57987888  0.77609294     0.42800
H1028       H  0.35405300  0.48674499  0.73941273     0.39300
H1029       H  0.66163096  0.52231845  0.75366460     0.44200
H1030       H  0.54597668  0.66779870  0.76788781     0.42900
H1031       H  0.34004427  0.46960532  0.77061973     0.43000
H1032       H  0.46555837  0.32614696  0.74679290     0.43400
O1033       O  0.78059502  0.45345927  0.49383798    -0.75500
O1034       O  0.85216730  0.49948589  0.49691034    -0.54400
C1035       C  0.81504475  0.45688485  0.99741210     0.78200
O1036       O  0.73981529  0.60914273  0.93546955    -0.60100
O1037       O  0.68113930  0.57691206  0.96268495    -0.53100
C1038       C  0.69963174  0.59114773  0.93829883     0.70300
O1039       O  0.83252574  0.56587301  0.92233515    -0.74600
O1040       O  0.87525860  0.55630112  0.95334350    -0.55200
C1041       C  0.86247771  0.55843023  0.92788517     0.76300
O1042       O  0.65769250  0.45769756  0.00055905    -0.59800
O1043       O  0.64262651  0.51120384  0.00614552    -0.52900
C1044       C  0.63157143  0.47162571  0.00172620     0.72900
Zr1045     Zr  0.73778666  0.48680028  0.50188199     2.54700
O1046       O  0.70199182  0.42694676  0.96798463    -0.80400
O1047       O  0.71364299  0.42997176  0.53735381    -0.93800
Zr1048     Zr  0.78037403  0.57554897  0.94646050     2.64700
O1049       O  0.73194709  0.52014495  0.91345242    -0.98700
O1050       O  0.81105242  0.62232610  0.90521016    -0.80800
O1051       O  0.78989553  0.52485508  0.97228529    -0.84100
O1052       O  0.72202504  0.53078997  0.97601037    -2.18900
O1053       O  0.73792718  0.58184890  0.58736956    -0.67500
O1054       O  0.68895120  0.57986633  0.55606607    -0.52100
C1055       C  0.70340561  0.58152683  0.58163844     0.71200
O1056       O  0.91494900  0.68715384  0.00331181    -0.60400
O1057       O  0.92102912  0.62744898  0.99998969    -0.52400
C1058       C  0.94051090  0.67312394  0.50545313     0.73000
O1059       O  0.78999151  0.69744076  0.00517680    -0.71800
O1060       O  0.71938643  0.64631323  0.00787875    -0.50500
C1061       C  0.74961235  0.68559656  0.00618884     0.74400
O1062       O  0.86414711  0.59530426  0.57375878    -0.67200
O1063       O  0.88239126  0.55711193  0.54583191    -0.54400
C1064       C  0.87985960  0.57117044  0.57067763     0.72800
Zr1065     Zr  0.79102292  0.57276750  0.56306857     2.77500
O1066       O  0.80718913  0.60357147  0.61105604    -0.97900
O1067       O  0.76724765  0.50685915  0.58976471    -0.78700
Zr1068     Zr  0.83630912  0.66361417  0.00572690     2.70100
O1069       O  0.86681296  0.71774493  0.54625962    -0.80000
O1070       O  0.86642385  0.71831440  0.96868596    -0.99100
Zr1071     Zr  0.85164027  0.56416900  0.00099117     2.21500
Zr1072     Zr  0.71408056  0.57702013  0.00868864     2.11100
O1073       O  0.78001819  0.62242004  0.53698412    -2.47800
O1074       O  0.84919340  0.61705531  0.53294517    -0.79800
O1075       O  0.72902823  0.53103916  0.53536728    -0.72000
O1076       O  0.84282483  0.61556106  0.97387679    -2.32900
O1077       O  0.79781199  0.52526533  0.53165308    -2.29100
O1078       O  0.77348675  0.62187186  0.97844461    -0.73700
H1079       H  0.69722150  0.51528039  0.96400591     0.78300
H1080       H  0.86663326  0.63135894  0.96112160     0.79400
H1081       H  0.77554148  0.64047970  0.54999018     0.81600
H1082       H  0.80323408  0.50562503  0.54219103     0.79200
H1083       H  0.82707389  0.65136027  0.91356093     0.42200
H1084       H  0.88232497  0.70942793  0.95598976     0.41200
H1085       H  0.88003691  0.74612332  0.53695527     0.40900
H1086       H  0.81369302  0.58457336  0.62243758     0.38800
H1087       H  0.73605267  0.49417542  0.59134165     0.41900
H1088       H  0.73993228  0.43265719  0.54558319     0.36700
H1089       H  0.70531555  0.44235672  0.94978406     0.42800
H1090       H  0.72837167  0.53587658  0.89739788     0.39300
H1091       H  0.83467317  0.63064220  0.60926896     0.44200
H1092       H  0.70112432  0.40337434  0.52588286     0.42900
H1093       H  0.74886381  0.50830717  0.90523923     0.43000
H1094       H  0.84168442  0.71360310  0.95704800     0.43400
O1095       O  0.67355791  0.22223454  0.48373765    -0.75500
O1096       O  0.64630177  0.15021181  0.48459853    -0.54400
C1097       C  0.64433324  0.17764602  0.98791512     0.78200
O1098       O  0.87715279  0.26198207  0.92800443    -0.60100
O1099       O  0.90204056  0.31982442  0.95619701    -0.53100
C1100       C  0.89957845  0.30227206  0.93164814     0.70300
O1101       O  0.74106561  0.16618962  0.91139616    -0.74600
O1102       O  0.68859075  0.12010156  0.94144680    -0.55200
C1103       C  0.70399169  0.13431727  0.91627459     0.76300
O1104       O  0.79963920  0.33608103  0.99883126    -0.59800
O1105       O  0.86903995  0.35417557  0.00304396    -0.52900
C1106       C  0.83931596  0.36387374  0.00121389     0.72900
Zr1107     Zr  0.74922484  0.26392100  0.49371579     2.54700
O1108       O  0.73366025  0.29366416  0.95593446    -0.80400
O1109       O  0.71871337  0.28579119  0.53185998    -0.93800
Zr1110     Zr  0.80178771  0.21962955  0.93692974     2.64700
O1111       O  0.79613956  0.26918691  0.90454021    -0.98700
O1112       O  0.81856492  0.19298146  0.89397641    -0.80800
O1113       O  0.73931951  0.20622174  0.96161103    -0.84100
O1114       O  0.81310191  0.27626621  0.96769908    -2.18900
O1115       O  0.84104409  0.26317994  0.57929335    -0.67500
O1116       O  0.89067235  0.31270636  0.54928955    -0.52100
C1117       C  0.87618977  0.29783156  0.57452536     0.71200
O1118       O  0.77746215  0.08279894  0.99446917    -0.60400
O1119       O  0.70547826  0.07607570  0.48998011    -0.52400
C1120       C  0.72997572  0.06038307  0.49322151     0.73000
O1121       O  0.91138356  0.20847294  0.99793051    -0.71800
O1122       O  0.93065155  0.27888610  0.00225022    -0.50500
C1123       C  0.93969546  0.24879615  0.00040402     0.74400
O1124       O  0.73145423  0.13299066  0.55930587    -0.67200
O1125       O  0.67281841  0.11500466  0.53429758    -0.54400
C1126       C  0.69134416  0.11721502  0.55821730     0.72800
Zr1127     Zr  0.77868285  0.20878246  0.55459018     2.77500
O1128       O  0.78447010  0.18633567  0.60286161    -0.97900
O1129       O  0.73380655  0.22802869  0.58181543    -0.78700
Zr1130     Zr  0.83194985  0.16207548  0.99631961     2.70100
O1131       O  0.84641348  0.13522594  0.53924199    -0.80000
O1132       O  0.85782805  0.13376354  0.95918855    -0.99100
Zr1133     Zr  0.71165013  0.14560670  0.48977093     2.21500
Zr1134     Zr  0.86641832  0.28398380  0.00113139     2.11100
O1135       O  0.84042312  0.22085505  0.52949365    -2.47800
O1136       O  0.76459172  0.15169155  0.52323783    -0.79800
O1137       O  0.80108939  0.27190408  0.52776596    -0.72000
O1138       O  0.77911799  0.15588002  0.96321092    -2.32900
O1139       O  0.72519904  0.20234177  0.52230902    -2.29100
O1140       O  0.85371580  0.22602039  0.96993164    -0.73700
H1141       H  0.82260152  0.30208142  0.95672050     0.78300
H1142       H  0.77203652  0.13255365  0.95014981     0.79400
H1143       H  0.86250465  0.22492216  0.54278040     0.81600
H1144       H  0.69962954  0.19634223  0.53242407     0.79200
H1145       H  0.83123737  0.17628821  0.90127560     0.42200
H1146       H  0.87265242  0.15755707  0.94539707     0.41200
H1147       H  0.83493407  0.14270148  0.55607856     0.40900
H1148       H  0.81312418  0.18964992  0.60392069     0.38800
H1149       H  0.75410482  0.25382837  0.59269831     0.41900
H1150       H  0.71301778  0.30701579  0.52273495     0.36700
H1151       H  0.71785608  0.30586195  0.96537354     0.42800
H1152       H  0.82486795  0.28652235  0.89614706     0.39300
H1153       H  0.78565079  0.20840537  0.61592844     0.44200
H1154       H  0.74269525  0.30274679  0.54512542     0.42900
H1155       H  0.77839583  0.25110680  0.88847088     0.43000
H1156       H  0.88088305  0.13129332  0.96854072     0.43400
O1157       O  0.32636909  0.77629725  0.48538468    -0.75500
O1158       O  0.35375464  0.84839727  0.48530611    -0.54400
C1159       C  0.35786704  0.81946235  0.98426847     0.78200
O1160       O  0.12579425  0.74190386  0.92879133    -0.60100
O1161       O  0.10053836  0.68197631  0.95484693    -0.53100
C1162       C  0.10314938  0.70141817  0.93112256     0.70300
O1163       O  0.26119770  0.83836964  0.91204193    -0.74600
O1164       O  0.31474517  0.88378754  0.94172677    -0.55200
C1165       C  0.29840148  0.87025559  0.91660637     0.76300
O1166       O  0.20174915  0.66145479  0.99582468    -0.59800
O1167       O  0.13263963  0.64399832  0.00120704    -0.52900
C1168       C  0.16192805  0.63387614  0.99880154     0.72900
Zr1169     Zr  0.25050000  0.73493144  0.49466776     2.54700
O1170       O  0.26574106  0.70615302  0.95088194    -0.80400
O1171       O  0.27915961  0.71493921  0.53505904    -0.93800
Zr1172     Zr  0.20142403  0.78238898  0.93682905     2.64700
O1173       O  0.20853580  0.73429770  0.90390324    -0.98700
O1174       O  0.18526048  0.80978477  0.89398773    -0.80800
O1175       O  0.26380965  0.79538787  0.96115029    -0.84100
O1176       O  0.18896741  0.72353868  0.96573665    -2.18900
O1177       O  0.15880579  0.73858358  0.57837852    -0.67500
O1178       O  0.10895477  0.68841968  0.54877426    -0.52100
C1179       C  0.12348524  0.70411799  0.57385976     0.71200
O1180       O  0.22165138  0.91333064  0.99674191    -0.60400
O1181       O  0.29407047  0.92251058  0.48740556    -0.52400
C1182       C  0.26937590  0.93810892  0.48968270     0.73000
O1183       O  0.09019494  0.78818148  0.00038337    -0.71800
O1184       O  0.07138168  0.71776147  0.00203575    -0.50500
C1185       C  0.06196964  0.74760923  0.00150116     0.74400
O1186       O  0.26776119  0.86774127  0.55968778    -0.67200
O1187       O  0.32597674  0.88589044  0.53385683    -0.54400
C1188       C  0.30798774  0.88477484  0.55787200     0.72800
Zr1189     Zr  0.22074840  0.79218898  0.55341452     2.77500
O1190       O  0.21260097  0.81551424  0.60079068    -0.97900
O1191       O  0.26511498  0.77264000  0.58102039    -0.78700
Zr1192     Zr  0.16987483  0.83492266  0.99791763     2.70100
O1193       O  0.15280858  0.86798527  0.53300437    -0.80000
O1194       O  0.14433151  0.86054089  0.95885343    -0.99100
Zr1195     Zr  0.28843922  0.85333889  0.48892632     2.21500
Zr1196     Zr  0.13636189  0.71435807  0.00031611     2.11100
O1197       O  0.15941124  0.77936647  0.52747669    -2.47800
O1198       O  0.23472858  0.84804656  0.52112947    -0.79800
O1199       O  0.19813534  0.72797405  0.52781899    -0.72000
O1200       O  0.22395064  0.84473038  0.96466015    -2.32900
O1201       O  0.27461520  0.79763754  0.52216633    -2.29100
O1202       O  0.14867884  0.77294543  0.97014099    -0.73700
H1203       H  0.17923394  0.69819038  0.95417432     0.78300
H1204       H  0.23023303  0.86842646  0.95217389     0.79400
H1205       H  0.13738898  0.77590333  0.54059535     0.81600
H1206       H  0.30013512  0.80407892  0.53253052     0.79200
H1207       H  0.16925726  0.82327262  0.90112039     0.42200
H1208       H  0.13066048  0.83617164  0.94535714     0.41200
H1209       H  0.17750964  0.88101356  0.54618849     0.40900
H1210       H  0.18349793  0.81113990  0.60130295     0.38800
H1211       H  0.28955939  0.80017960  0.58740595     0.41900
H1212       H  0.28874359  0.69616098  0.52670430     0.36700
H1213       H  0.28286110  0.69442692  0.95892199     0.42800
H1214       H  0.18023629  0.71755862  0.89477582     0.39300
H1215       H  0.21223883  0.79450800  0.61448404     0.44200
H1216       H  0.25398434  0.69558503  0.54673263     0.42900
H1217       H  0.22720650  0.75311688  0.88844063     0.43000
H1218       H  0.12041458  0.86251565  0.96719577     0.43400
O1219       O  0.57166360  0.83309312  0.91363226    -0.75500
O1220       O  0.57642213  0.88584429  0.94260958    -0.54400
C1221       C  0.57264186  0.86851813  0.91767747     0.78200
O1222       O  0.45172599  0.67377703  0.01086151    -0.60100
O1223       O  0.49661000  0.64720626  0.01250432    -0.53100
C1224       C  0.45930088  0.64299643  0.01377061     0.70300
O1225       O  0.45941391  0.79606644  0.49235592    -0.74600
O1226       O  0.51261860  0.86543617  0.48876947    -0.55200
C1227       C  0.47384912  0.83925412  0.99060519     0.76300
O1228       O  0.59589893  0.72600481  0.93695354    -0.59800
O1229       O  0.55440542  0.66976379  0.96400503    -0.52900
C1230       C  0.56962394  0.68622496  0.93932361     0.72900
Zr1231     Zr  0.57394306  0.77802199  0.94131427     2.54700
O1232       O  0.51754186  0.73227872  0.90805495    -0.80400
O1233       O  0.62298224  0.79821243  0.90102385    -0.93800
Zr1234     Zr  0.48490660  0.74620154  0.49783835     2.64700
O1235       O  0.42672578  0.71856555  0.96805876    -0.98700
O1236       O  0.42337093  0.72566092  0.52843374    -0.80800
O1237       O  0.53175167  0.79984275  0.96661086    -0.84100
O1238       O  0.52463055  0.72598076  0.97391252    -2.18900
O1239       O  0.68909995  0.77213359  0.00214514    -0.67500
O1240       O  0.62966211  0.70641874  0.00872282    -0.52100
C1241       C  0.67100580  0.73207276  0.50776553     0.71200
O1242       O  0.60781318  0.87211560  0.56258078    -0.60400
O1243       O  0.57278699  0.89490559  0.53595050    -0.52400
C1244       C  0.58644253  0.89085698  0.56045979     0.73000
O1245       O  0.56753802  0.73675697  0.58593736    -0.71800
O1246       O  0.55903942  0.68307239  0.55637584    -0.50500
C1247       C  0.56076637  0.69898242  0.58149211     0.74400
O1248       O  0.70021765  0.90663683  0.99789712    -0.67200
O1249       O  0.65017077  0.92641402  0.99158735    -0.54400
C1250       C  0.68526048  0.93557079  0.49706139     0.72800
Zr1251     Zr  0.66515781  0.82665540  0.99930920     2.77500
O1252       O  0.71591261  0.85304315  0.54051565    -0.97900
O1253       O  0.71507343  0.84479632  0.95984032    -0.78700
Zr1254     Zr  0.57298862  0.79567702  0.55853179     2.70100
O1255       O  0.61079544  0.81685041  0.60405484    -0.80000
O1256       O  0.51424081  0.78754967  0.58806489    -0.99100
Zr1257     Zr  0.57772322  0.86046385  0.49232082     2.21500
Zr1258     Zr  0.56638801  0.71245953  0.00760592     2.11100
O1259       O  0.61552415  0.77348174  0.53411438    -2.47800
O1260       O  0.62052011  0.84804835  0.52590675    -0.79800
O1261       O  0.61500505  0.76453443  0.97436809    -0.72000
O1262       O  0.52994439  0.80726329  0.52566384    -2.32900
O1263       O  0.62284079  0.84068422  0.96628525    -2.29100
O1264       O  0.52460498  0.73374142  0.53277953    -0.73700
H1265       H  0.50482145  0.70035911  0.96370288     0.78300
H1266       H  0.51304571  0.81662593  0.53584896     0.79400
H1267       H  0.63106751  0.76657256  0.54776502     0.81600
H1268       H  0.64113914  0.86241333  0.95276000     0.79200
H1269       H  0.39843753  0.70821100  0.51599076     0.42200
H1270       H  0.50747807  0.76298034  0.60066883     0.41200
H1271       H  0.64118716  0.83025449  0.59872254     0.40900
H1272       H  0.71240059  0.87547949  0.54997488     0.38800
H1273       H  0.70038799  0.82062081  0.94627970     0.41900
H1274       H  0.64143327  0.82961379  0.90236884     0.36700
H1275       H  0.49635905  0.74156337  0.90982179     0.42800
H1276       H  0.42933061  0.69601003  0.95796973     0.39300
H1277       H  0.70450999  0.82936028  0.55455433     0.44200
H1278       H  0.60530688  0.79335774  0.88374036     0.42900
H1279       H  0.40123028  0.70286085  0.98032792     0.43000
H1280       H  0.52712087  0.81250052  0.60108678     0.43400
O1281       O  0.21911349  0.54502553  0.49874126    -0.75500
O1282       O  0.14735819  0.49937057  0.49858802    -0.54400
C1283       C  0.18292878  0.53866707  0.99502114     0.78200
O1284       O  0.25870833  0.38615212  0.93457239    -0.60100
O1285       O  0.31829642  0.41915580  0.96090971    -0.53100
C1286       C  0.29894422  0.40338122  0.93694788     0.70300
O1287       O  0.16734467  0.43185504  0.92067635    -0.74600
O1288       O  0.12227112  0.43732295  0.95186877    -0.55200
C1289       C  0.13594923  0.43710176  0.92631509     0.76300
O1290       O  0.33941559  0.53985402  0.00828410    -0.59800
O1291       O  0.35620351  0.48735487  0.00882243    -0.52900
C1292       C  0.36641067  0.52707230  0.00957059     0.72900
Zr1293     Zr  0.26145917  0.51092611  0.50580533     2.54700
O1294       O  0.30028065  0.56805362  0.96710706    -0.80400
O1295       O  0.28886259  0.56437576  0.54380275    -0.93800
Zr1296     Zr  0.22059839  0.42287573  0.94440719     2.64700
O1297       O  0.27207708  0.47806806  0.91259389    -0.98700
O1298       O  0.19379090  0.38372053  0.89961049    -0.80800
O1299       O  0.20884234  0.47161449  0.97098573    -0.84100
O1300       O  0.27845128  0.46788325  0.97465574    -2.18900
O1301       O  0.26112066  0.41482226  0.58758503    -0.67500
O1302       O  0.30990353  0.41660936  0.55621070    -0.52100
C1303       C  0.29566879  0.41524258  0.58179800     0.71200
O1304       O  0.08672284  0.30831285  0.00405700    -0.60400
O1305       O  0.07900835  0.36718848  0.00146856    -0.52400
C1306       C  0.05886920  0.32557492  0.50314600     0.73000
O1307       O  0.21393458  0.30013665  0.00624471    -0.71800
O1308       O  0.28390796  0.35351617  0.00853485    -0.50500
C1309       C  0.25479303  0.31390159  0.00848514     0.74400
O1310       O  0.13371913  0.40159993  0.57578027    -0.67200
O1311       O  0.11648155  0.44011091  0.54708500    -0.54400
C1312       C  0.11833062  0.42591688  0.57207285     0.72800
Zr1313     Zr  0.20512103  0.41953256  0.56370889     2.77500
O1314       O  0.17674244  0.37095999  0.60443811    -0.97900
O1315       O  0.22630596  0.47849237  0.59710232    -0.78700
Zr1316     Zr  0.16554516  0.33235883  0.00226760     2.70100
O1317       O  0.13006341  0.27714884  0.54171364    -0.80000
O1318       O  0.14109723  0.28524716  0.96069839    -0.99100
Zr1319     Zr  0.14726617  0.43103637  0.99959352     2.21500
Zr1320     Zr  0.28600277  0.42079863  0.00678562     2.11100
O1321       O  0.21789278  0.37272436  0.53575544    -2.47800
O1322       O  0.14860981  0.37889800  0.53165674    -0.79800
O1323       O  0.26817973  0.46354379  0.53747042    -0.72000
O1324       O  0.15783553  0.38109476  0.97152128    -2.32900
O1325       O  0.20038418  0.47037997  0.53431176    -2.29100
O1326       O  0.22810851  0.37583600  0.97547493    -0.73700
H1327       H  0.30405149  0.48451111  0.96356691     0.78300
H1328       H  0.13400056  0.36531088  0.95874766     0.79400
H1329       H  0.22211972  0.35395741  0.54822691     0.81600
H1330       H  0.19527298  0.48951050  0.54576154     0.79200
H1331       H  0.17888904  0.35326545  0.90523466     0.42200
H1332       H  0.13976425  0.30277753  0.94495068     0.41200
H1333       H  0.13428926  0.29385826  0.55944040     0.40900
H1334       H  0.18610856  0.34994863  0.60156563     0.38800
H1335       H  0.20050662  0.47050703  0.60857083     0.41900
H1336       H  0.27983811  0.54765773  0.56179691     0.36700
H1337       H  0.28702271  0.55358307  0.94880461     0.42800
H1338       H  0.27821393  0.46232727  0.89784229     0.39300
H1339       H  0.19301754  0.38803711  0.62128236     0.44200
H1340       H  0.27159929  0.57836179  0.54286368     0.42900
H1341       H  0.25557687  0.48875012  0.90227585     0.43000
H1342       H  0.16539523  0.28152205  0.95562111     0.43400
O1343       O  0.43615869  0.17626952  0.91254928    -0.75500
O1344       O  0.44676745  0.13274669  0.94224235    -0.54400
C1345       C  0.44372410  0.14591127  0.91706457     0.78200
O1346       O  0.53781517  0.35029928  0.00372610    -0.60100
O1347       O  0.48105629  0.35973054  0.01049573    -0.53100
C1348       C  0.52152365  0.37397892  0.00834367     0.70300
O1349       O  0.54065714  0.20263929  0.48991285    -0.74600
O1350       O  0.48744122  0.13315906  0.48686919    -0.55200
C1351       C  0.55088257  0.20115176  0.98841988     0.76300
O1352       O  0.38770565  0.26573116  0.93684040    -0.59800
O1353       O  0.42036741  0.32539458  0.96201168    -0.52900
C1354       C  0.40915610  0.30623465  0.93769654     0.72900
Zr1355     Zr  0.42443867  0.22643010  0.93924070     2.54700
O1356       O  0.47678480  0.27802531  0.90608316    -0.80400
O1357       O  0.37539176  0.19860766  0.89879781    -0.93800
Zr1358     Zr  0.51414848  0.25147782  0.49633052     2.64700
O1359       O  0.56451382  0.31191913  0.95707941    -0.98700
O1360       O  0.57379199  0.27046863  0.52842865    -0.80800
O1361       O  0.47757156  0.21955554  0.96385248    -0.84100
O1362       O  0.46586817  0.28460112  0.97090022    -2.18900
O1363       O  0.30045955  0.20529124  0.99693729    -0.67500
O1364       O  0.34622792  0.27644653  0.00588104    -0.52100
C1365       C  0.30863616  0.24439723  0.00084043     0.71200
O1366       O  0.39006387  0.12426812  0.56004481    -0.60400
O1367       O  0.42600806  0.10226630  0.53372841    -0.52400
C1368       C  0.41156228  0.10565285  0.55811585     0.73000
O1369       O  0.43256599  0.26029846  0.58352994    -0.71800
O1370       O  0.43941593  0.31387036  0.55455066    -0.50500
C1371       C  0.43851307  0.29778861  0.57945055     0.74400
O1372       O  0.32057123  0.08561233  0.99587727    -0.67200
O1373       O  0.38196221  0.08336099  0.99035342    -0.54400
C1374       C  0.31391984  0.06244774  0.49321754     0.72800
Zr1375     Zr  0.33856664  0.16313283  0.99877292     2.77500
O1376       O  0.28164404  0.14141771  0.53617630    -0.97900
O1377       O  0.28329856  0.12997121  0.96245041    -0.78700
Zr1378     Zr  0.42465600  0.20066283  0.55613805     2.70100
O1379       O  0.38204685  0.18002341  0.59967116    -0.80000
O1380       O  0.47953415  0.20405212  0.58771590    -0.99100
Zr1381     Zr  0.42174458  0.13729098  0.49007340     2.21500
Zr1382     Zr  0.41802149  0.28695881  0.00561397     2.11100
O1383       O  0.38286417  0.22353095  0.53147827    -2.47800
O1384       O  0.37787983  0.14897973  0.52300224    -0.79800
O1385       O  0.37723193  0.22825356  0.97330760    -0.72000
O1386       O  0.46884482  0.19015074  0.52376087    -2.32900
O1387       O  0.38784765  0.16181881  0.96538994    -2.29100
O1388       O  0.47359756  0.26315594  0.53101666    -0.73700
H1389       H  0.48087060  0.31091369  0.96020438     0.78300
H1390       H  0.48568353  0.18080644  0.53404657     0.79400
H1391       H  0.36700282  0.23002968  0.54512157     0.81600
H1392       H  0.37277807  0.13817423  0.95229954     0.79200
H1393       H  0.56218782  0.26924957  0.54782157     0.42200
H1394       H  0.49994416  0.23496657  0.59005033     0.41200
H1395       H  0.35226268  0.16508203  0.59275164     0.40900
H1396       H  0.25505118  0.12054098  0.52633129     0.38800
H1397       H  0.29459952  0.14973112  0.94591776     0.41900
H1398       H  0.35933798  0.16725632  0.90151761     0.36700
H1399       H  0.47252420  0.26179561  0.88812308     0.42800
H1400       H  0.55070383  0.29301848  0.94038567     0.39300
H1401       H  0.28955934  0.12372541  0.54785851     0.44200
H1402       H  0.39337804  0.20332252  0.88172559     0.42900
H1403       H  0.56205003  0.33737725  0.95319108     0.43000
H1404       H  0.46551434  0.19479537  0.60664609     0.43400
C1405       C  0.27316163  0.25475749  0.99810781    -0.16600
C1406       C  0.27278837  0.28524435  0.01496426    -0.31800
H1407       H  0.25105028  0.24129839  0.98030816     0.12400
H1408       H  0.23847406  0.24311654  0.50029191     0.13000
C1409       C  0.42064919  0.60125548  0.01958790    -0.16600
C1410       C  0.41203263  0.56202406  0.01103599    -0.31800
H1411       H  0.39467243  0.60429061  0.02839661     0.12400
H1412       H  0.43338871  0.55334405  0.50066734     0.13000
C1413       C  0.29342761  0.98608271  0.48780121    -0.16600
C1414       C  0.28119700  0.01507879  0.49348430    -0.31800
H1415       H  0.32656933  0.99882212  0.48198769     0.12400
H1416       H  0.34152019  0.00504775  0.98835393     0.13000
C1417       C  0.17967161  0.57757263  0.98986222    -0.16600
C1418       C  0.15087536  0.58777411  0.99985018    -0.31800
H1419       H  0.20584569  0.60104331  0.48115331     0.12400
H1420       H  0.12199724  0.56397188  0.01042566     0.13000
C1421       C  0.39991992  0.82160590  0.98047367    -0.16600
C1422       C  0.43995388  0.85167294  0.98858285    -0.31800
H1423       H  0.39605716  0.79150829  0.97287815     0.12400
H1424       H  0.44475447  0.87870433  0.49465302     0.13000
C1425       C  0.71795206  0.98309117  0.49763990    -0.16600
C1426       C  0.70573751  0.01221248  0.49209297    -0.31800
H1427       H  0.75535477  0.99215344  0.00093363     0.12400
H1428       H  0.67248025  0.99943177  0.48657804     0.13000
C1429       C  0.01109225  0.30249296  0.50470821    -0.16600
C1430       C  0.98109103  0.26101516  0.49998556    -0.31800
H1431       H  0.00437755  0.32457955  0.01199793     0.12400
H1432       H  0.99052609  0.23769246  0.49531859     0.13000
C1433       C  0.59934612  0.16887062  0.98714222    -0.16600
C1434       C  0.59200441  0.20181540  0.98610648    -0.31800
H1435       H  0.57294855  0.13627496  0.98858049     0.12400
H1436       H  0.55544346  0.12029950  0.49335880     0.13000
C1437       C  0.98836911  0.69664573  0.50766860    -0.16600
C1438       C  0.01822569  0.73762309  0.50115912    -0.31800
H1439       H  0.99710155  0.66974317  0.99608745     0.12400
H1440       H  0.00850626  0.76030766  0.49517519     0.13000
C1441       C  0.69353021  0.70626549  0.00726375    -0.16600
C1442       C  0.73567190  0.71877807  0.00513417    -0.31800
H1443       H  0.67171893  0.67230063  0.01025221     0.12400
H1444       H  0.76037238  0.75454933  0.50455841     0.13000
C1445       C  0.81827925  0.41787940  0.99338232    -0.16600
C1446       C  0.84916065  0.40956295  0.00187180    -0.31800
H1447       H  0.78922844  0.39162876  0.98443712     0.12400
H1448       H  0.87824135  0.43612192  0.51276449     0.08500
C1449       C  0.55328861  0.42060450  0.01179809    -0.16600
C1450       C  0.58717664  0.43863536  0.99393704    -0.31800
H1451       H  0.60519345  0.39540312  0.52619879     0.12400
H1452       H  0.58544182  0.42010676  0.97510688     0.13000
C1453       C  0.44135613  0.30508743  0.63308588    -0.13500
C1454       C  0.44632488  0.32379932  0.60572226     0.08600
C1455       C  0.46190925  0.36771532  0.60398497    -0.13500
C1456       C  0.47298030  0.39242060  0.62888146    -0.13500
C1457       C  0.46859734  0.37387838  0.65627652     0.08600
C1458       C  0.45238984  0.32983283  0.65805054    -0.13500
H1459       H  0.42932668  0.27118498  0.63529250     0.12600
H1460       H  0.46642067  0.38320023  0.58338716     0.12600
H1461       H  0.48512357  0.42632273  0.62650455     0.12600
H1462       H  0.44823579  0.31449315  0.67866335     0.12600
C1463       C  0.43116976  0.33077910  0.85812401    -0.13500
C1464       C  0.46612978  0.37256371  0.85880152     0.08600
C1465       C  0.48199448  0.39193214  0.88572416    -0.13500
C1466       C  0.46255754  0.37100301  0.91117892    -0.13500
C1467       C  0.42689165  0.32983766  0.91055870     0.08600
C1468       C  0.41181353  0.30958416  0.88377625    -0.13500
H1469       H  0.41765278  0.31527788  0.83784394     0.12600
H1470       H  0.50887863  0.42416939  0.88712270     0.12600
H1471       H  0.47579524  0.38699592  0.93138226     0.12600
H1472       H  0.38475117  0.27746066  0.88263788     0.12600
C1473       C  0.67316274  0.58202479  0.65917195    -0.13500
C1474       C  0.62878441  0.56152862  0.65724004     0.08600
C1475       C  0.60986150  0.55354015  0.62972407    -0.13500
C1476       C  0.63437863  0.56295542  0.60489720    -0.13500
C1477       C  0.67841379  0.58059359  0.60692436     0.08600
C1478       C  0.69772144  0.59152804  0.63427305    -0.13500
H1479       H  0.68878078  0.58925886  0.67986652     0.12600
H1480       H  0.57570174  0.53836682  0.62722735     0.12600
H1481       H  0.61856423  0.55410001  0.58426273     0.12600
H1482       H  0.73182178  0.60574942  0.63653649     0.12600
C1483       C  0.67141299  0.58280310  0.85925438    -0.13500
C1484       C  0.62693384  0.55871912  0.86015060     0.08600
C1485       C  0.60662523  0.54910738  0.88723041    -0.13500
C1486       C  0.63004594  0.56152596  0.91263348    -0.13500
C1487       C  0.67448064  0.58428386  0.91178803     0.08600
C1488       C  0.69492184  0.59551548  0.88478931    -0.13500
H1489       H  0.68803048  0.59114816  0.83892716     0.12600
H1490       H  0.57229067  0.53096993  0.88900626     0.12600
H1491       H  0.61330050  0.55204287  0.93290748     0.12600
H1492       H  0.72928802  0.61286028  0.88330138     0.12600
C1493       C  0.52505598  0.60271684  0.62978902    -0.13500
C1494       C  0.53094752  0.62070638  0.65751797     0.08600
C1495       C  0.54837034  0.66495067  0.65985736    -0.13500
C1496       C  0.55917845  0.69038416  0.63517326    -0.13500
C1497       C  0.55288699  0.67223776  0.60749591     0.08600
C1498       C  0.53590594  0.62808980  0.60518906    -0.13500
H1499       H  0.51184555  0.56871163  0.62692899     0.12600
H1500       H  0.55375965  0.67994326  0.68071511     0.12600
H1501       H  0.57218758  0.72438869  0.63783944     0.12600
H1502       H  0.53017717  0.61293933  0.58435996     0.12600
C1503       C  0.50847928  0.59482066  0.88710232    -0.13500
C1504       C  0.52456664  0.61480571  0.86035298     0.08600
C1505       C  0.55552272  0.65823596  0.85998810    -0.13500
C1506       C  0.57079880  0.68079917  0.88573592    -0.13500
C1507       C  0.55525695  0.66063918  0.91250455     0.08600
C1508       C  0.52352641  0.61745806  0.91283420    -0.13500
H1509       H  0.48467301  0.56120710  0.88818445     0.12600
H1510       H  0.56914860  0.67434445  0.83990379     0.12600
H1511       H  0.59499164  0.71422662  0.88458504     0.12600
H1512       H  0.51032060  0.60115465  0.93292813     0.12600
C1513       C  0.38921956  0.44068166  0.62948225    -0.13500
C1514       C  0.37074276  0.43364199  0.65705446     0.08600
C1515       C  0.32656764  0.41518285  0.65923681    -0.13500
C1516       C  0.30185529  0.40651067  0.63450084    -0.13500
C1517       C  0.32079369  0.41630064  0.60704780     0.08600
C1518       C  0.36453199  0.43211408  0.60478340    -0.13500
H1519       H  0.42318776  0.45430798  0.62686436     0.12600
H1520       H  0.31127826  0.40884950  0.68000622     0.12600
H1521       H  0.26798053  0.39367628  0.63698303     0.12600
H1522       H  0.38004435  0.43997128  0.58405474     0.12600
C1523       C  0.39067040  0.43510279  0.88606108    -0.13500
C1524       C  0.37108160  0.43043070  0.85903706     0.08600
C1525       C  0.32677125  0.41155980  0.85794673    -0.13500
C1526       C  0.30303378  0.39997063  0.88336042    -0.13500
C1527       C  0.32315259  0.40753510  0.91041166     0.08600
C1528       C  0.36708601  0.42412573  0.91137323    -0.13500
H1529       H  0.42472920  0.44858987  0.88789704     0.12600
H1530       H  0.31062448  0.40695140  0.83762181     0.12600
H1531       H  0.26905014  0.38703454  0.88179337     0.12600
H1532       H  0.38350082  0.43003909  0.93171205     0.12600
C1533       C  0.90393501  0.50600136  0.62282181    -0.13500
C1534       C  0.90549715  0.52566541  0.64925763     0.08600
C1535       C  0.90034949  0.56134926  0.64933359    -0.13500
C1536       C  0.89413706  0.57723182  0.62358412    -0.13500
C1537       C  0.89241312  0.55753863  0.59713171     0.08600
C1538       C  0.89728694  0.52162403  0.59708171    -0.13500
H1539       H  0.90848375  0.47875877  0.62203137     0.12600
H1540       H  0.90283069  0.57801254  0.66915801     0.12600
H1541       H  0.89061590  0.60506941  0.62444055     0.12600
H1542       H  0.89533667  0.50521807  0.57723863     0.12600
C1543       C  0.88711665  0.55157067  0.85023099    -0.13500
C1544       C  0.90534370  0.52583431  0.85175848     0.08600
C1545       C  0.91152650  0.51251830  0.87892669    -0.13500
C1546       C  0.89962612  0.52470241  0.90401265    -0.13500
C1547       C  0.88114806  0.55025349  0.90239575     0.08600
C1548       C  0.87533513  0.56380450  0.87527019    -0.13500
H1549       H  0.88275932  0.56296894  0.82978093     0.12600
H1550       H  0.92573848  0.49267873  0.88085885     0.12600
H1551       H  0.90374309  0.51318212  0.92449059     0.12600
H1552       H  0.86113660  0.58364918  0.87332280     0.12600
C1553       C  0.90162119  0.32871297  0.65279735    -0.13500
C1554       C  0.93279840  0.37192024  0.65082315     0.08600
C1555       C  0.94927202  0.38917920  0.62346860    -0.13500
C1556       C  0.93273047  0.36464637  0.59860407    -0.13500
C1557       C  0.89948391  0.32219811  0.60048828     0.08600
C1558       C  0.88520186  0.30415760  0.62795633    -0.13500
H1559       H  0.88862508  0.31430000  0.67341276     0.12600
H1560       H  0.97403974  0.42226540  0.62109157     0.12600
H1561       H  0.94465628  0.37949494  0.57793003     0.12600
H1562       H  0.85996966  0.27129919  0.63033906     0.12600
C1563       C  0.95085967  0.39670235  0.88120595    -0.13500
C1564       C  0.94278683  0.37654106  0.85403476     0.08600
C1565       C  0.92535252  0.33224056  0.85317579    -0.13500
C1566       C  0.91440435  0.30857108  0.87868081    -0.13500
C1567       C  0.92014281  0.32853580  0.90568942     0.08600
C1568       C  0.93961611  0.37305167  0.90661490    -0.13500
H1569       H  0.96483208  0.43096132  0.88299505     0.12600
H1570       H  0.91929695  0.31575877  0.83283878     0.12600
H1571       H  0.89955069  0.27420932  0.87708282     0.12600
H1572       H  0.94444709  0.38950505  0.92686883     0.12600
C1573       C  0.08650113  0.48765685  0.62182546    -0.13500
C1574       C  0.09140070  0.47388624  0.64915875     0.08600
C1575       C  0.10328161  0.44280270  0.65067363    -0.13500
C1576       C  0.10994216  0.42585309  0.62554772    -0.13500
C1577       C  0.10525235  0.43979641  0.59822184     0.08600
C1578       C  0.09342528  0.47093044  0.59672448    -0.13500
H1579       H  0.07690267  0.51130126  0.61977372     0.12600
H1580       H  0.10637338  0.43078385  0.67123535     0.12600
H1581       H  0.11945649  0.40216013  0.62762157     0.12600
H1582       H  0.09015749  0.48289221  0.57618761     0.12600
C1583       C  0.09117805  0.46367599  0.90358153    -0.13500
C1584       C  0.11638812  0.44493021  0.90092190     0.08600
C1585       C  0.12677625  0.43742303  0.87316453    -0.13500
C1586       C  0.11350234  0.44959287  0.84869736    -0.13500
C1587       C  0.08940746  0.46950518  0.85131075     0.08600
C1588       C  0.07782861  0.47581382  0.87907753    -0.13500
H1589       H  0.08286032  0.47013646  0.92452565     0.12600
H1590       H  0.14599510  0.42273200  0.87024174     0.12600
H1591       H  0.12234862  0.44363643  0.82778596     0.12600
H1592       H  0.05868522  0.49058950  0.88201807     0.12600
C1593       C  0.06673085  0.63865231  0.59857397    -0.13500
C1594       C  0.10002013  0.68104923  0.59999754     0.08600
C1595       C  0.11418827  0.70021515  0.62722830    -0.13500
C1596       C  0.09789514  0.67652068  0.65237000    -0.13500
C1597       C  0.06697531  0.63316756  0.65083972     0.08600
C1598       C  0.05026587  0.61504335  0.62369962    -0.13500
H1599       H  0.05483524  0.62305773  0.57807934     0.12600
H1600       H  0.13933145  0.73318798  0.62920243     0.12600
H1601       H  0.11090600  0.69162451  0.67283790     0.12600
H1602       H  0.02555379  0.58186947  0.62167964     0.12600
C1603       C  0.05657653  0.63266029  0.90538872    -0.13500
C1604       C  0.08232135  0.67709386  0.90469831     0.08600
C1605       C  0.09301858  0.69792313  0.87781502    -0.13500
C1606       C  0.08088530  0.67458324  0.85220111    -0.13500
C1607       C  0.05733625  0.62994816  0.85293396     0.08600
C1608       C  0.04400019  0.60941953  0.87987515    -0.13500
H1609       H  0.04757210  0.61567771  0.92560892     0.12600
H1610       H  0.11282272  0.73229684  0.87646761     0.12600
H1611       H  0.09125830  0.69136677  0.83196838     0.12600
H1612       H  0.02495610  0.57497754  0.88144836     0.12600
C1613       C  0.33433255  0.90478297  0.63726330    -0.13500
C1614       C  0.37753978  0.91745107  0.63742326     0.08600
C1615       C  0.39810645  0.92147029  0.61095536    -0.13500
C1616       C  0.37611385  0.91274804  0.58505300    -0.13500
C1617       C  0.33290117  0.89987043  0.58480735     0.08600
C1618       C  0.31234990  0.89643848  0.61120256    -0.13500
H1619       H  0.31789233  0.90244844  0.65711820     0.12600
H1620       H  0.43160199  0.93160649  0.61018474     0.12600
H1621       H  0.39283175  0.91534949  0.56527950     0.12600
H1622       H  0.27909611  0.88704115  0.61181531     0.12600
C1623       C  0.33105083  0.88762486  0.83843271    -0.13500
C1624       C  0.37351802  0.92032559  0.84019873     0.08600
C1625       C  0.39020424  0.93916289  0.86719855    -0.13500
C1626       C  0.36556231  0.92435067  0.89201255    -0.13500
C1627       C  0.32361748  0.89040771  0.89041556     0.08600
C1628       C  0.30635732  0.87292768  0.86321691    -0.13500
H1629       H  0.31718300  0.87273919  0.81806093     0.12600
H1630       H  0.42272842  0.96512215  0.86933639     0.12600
H1631       H  0.37970009  0.93872151  0.91244562     0.12600
H1632       H  0.27393212  0.84679536  0.86102012     0.12600
C1633       C  0.57708792  0.90985999  0.63947332    -0.13500
C1634       C  0.54346074  0.91809845  0.63920697     0.08600
C1635       C  0.52474592  0.91805707  0.61271508    -0.13500
C1636       C  0.53975863  0.91086557  0.58706842    -0.13500
C1637       C  0.57386192  0.90342710  0.58719855     0.08600
C1638       C  0.59218789  0.90264966  0.61369064    -0.13500
H1639       H  0.59253307  0.91034002  0.65942607     0.12600
H1640       H  0.49862834  0.92419422  0.61174971     0.12600
H1641       H  0.52416590  0.91044473  0.56719129     0.12600
H1642       H  0.61822479  0.89639824  0.61450828     0.12600
C1643       C  0.55005912  0.93853397  0.86858198    -0.13500
C1644       C  0.54864520  0.92106228  0.84120623     0.08600
C1645       C  0.55831842  0.88837367  0.83919696    -0.13500
C1646       C  0.56755803  0.87256039  0.86392084    -0.13500
C1647       C  0.56752009  0.88904738  0.89140225     0.08600
C1648       C  0.55941796  0.92281625  0.89328050    -0.13500
H1649       H  0.54332523  0.96417995  0.87108274     0.12600
H1650       H  0.55780578  0.87431262  0.81861387     0.12600
H1651       H  0.57390946  0.84665159  0.86147178     0.12600
H1652       H  0.55910004  0.93633794  0.91391396     0.12600
C1653       C  0.60681470  0.09408889  0.61343031    -0.13500
C1654       C  0.62553618  0.08988984  0.63872313     0.08600
C1655       C  0.66603613  0.09453408  0.63731973    -0.13500
C1656       C  0.68686201  0.10207747  0.61090619    -0.13500
C1657       C  0.66760550  0.10527563  0.58551217     0.08600
C1658       C  0.62758872  0.10169951  0.58713569    -0.13500
H1659       H  0.57548013  0.09055926  0.61392972     0.12600
H1660       H  0.68071742  0.09052131  0.65634063     0.12600
H1661       H  0.71792228  0.10500697  0.61033067     0.12600
H1662       H  0.61247290  0.10515829  0.56814740     0.12600
C1663       C  0.67199646  0.11071642  0.83830462    -0.13500
C1664       C  0.62763202  0.08697695  0.84035741     0.08600
C1665       C  0.60864452  0.07688805  0.86782863    -0.13500
C1666       C  0.63337198  0.09046441  0.89260885    -0.13500
C1667       C  0.67765266  0.11476082  0.89054312     0.08600
C1668       C  0.69675398  0.12437356  0.86314399    -0.13500
H1669       H  0.68755460  0.11865979  0.81759586     0.12600
H1670       H  0.57441592  0.05857031  0.87033474     0.12600
H1671       H  0.61776346  0.08306016  0.91330312     0.12600
H1672       H  0.73099768  0.14309226  0.86083242     0.12600
C1673       C  0.42222728  0.08962899  0.63757792    -0.13500
C1674       C  0.45467960  0.07965189  0.63747293     0.08600
C1675       C  0.47086591  0.07586267  0.61079163    -0.13500
C1676       C  0.45544071  0.08217587  0.58500691    -0.13500
C1677       C  0.42338131  0.09257951  0.58505461     0.08600
C1678       C  0.40672526  0.09599480  0.61162465    -0.13500
H1679       H  0.40835117  0.09173773  0.65759104     0.12600
H1680       H  0.49566497  0.06781375  0.60974069     0.12600
H1681       H  0.46943103  0.07994548  0.56507094     0.12600
H1682       H  0.38201633  0.10417438  0.61240603     0.12600
C1683       C  0.45345938  0.12257969  0.83861519    -0.13500
C1684       C  0.46398587  0.09055119  0.84078341     0.08600
C1685       C  0.46682008  0.07611537  0.86841205    -0.13500
C1686       C  0.45973426  0.09345391  0.89312199    -0.13500
C1687       C  0.44968981  0.12582127  0.89098892     0.08600
C1688       C  0.44637643  0.13995963  0.86337220    -0.13500
H1689       H  0.45096336  0.13443023  0.81783598     0.12600
H1690       H  0.47473288  0.05132601  0.87110224     0.12600
H1691       H  0.46251048  0.08172598  0.91387984     0.12600
H1692       H  0.43859841  0.16485640  0.86077130     0.12600
loop_ 
_geom_bond_atom_site_label_1 
_geom_bond_atom_site_label_2 
_geom_bond_distance 
_geom_bond_site_symmetry_2 
_ccdc_geom_bond_type 
O1          Zr13   2.489       .  S
O1            C3   1.296       .  A
O2          Zr39   2.386   1_545  S
O2            C3   1.277       .  A
C3          C838   1.494       .  S
O4          Zr16   2.485       .  S
O4            C6   1.293       .  A
O5          Zr40   2.368       .  S
O5            C6   1.274       .  A
C6          C768   1.478       .  S
O7          Zr16   2.475       .  S
O7            C9   1.293       .  A
O8          Zr39   2.359       .  S
O8            C9   1.273       .  A
C9          C778   1.480       .  S
O10         Zr13   2.483       .  S
O10          C12   1.294       .  A
O11         Zr40   2.365   1_545  S
O11          C12   1.274       .  A
C12         C828   1.478       .  S
Zr13         O14   2.435       .  S
Zr13         O15   2.436       .  S
Zr13         O19   2.283   1_545  S
Zr13         O43   2.291       .  S
Zr13         O20   2.380   1_545  S
Zr13         O45   2.384       .  S
O14          H57   0.990       .  S
O15          H56   0.990       .  S
O15          H60   0.990       .  S
Zr16         O17   2.439       .  S
Zr16         O18   2.435       .  S
Zr16         O19   2.286       .  S
Zr16         O46   2.287       .  S
Zr16         O20   2.381       .  S
Zr16         O44   2.388       .  S
O17          H58   0.990       .  S
O17          H61   0.991       .  S
O18          H51   0.990       .  S
O19         Zr39   2.262       .  S
O20         Zr40   2.379       .  S
O20          H47   0.966       .  S
O21         Zr33   2.498       .  S
O21          C23   1.296       .  A
O22         Zr40   2.370   1_545  S
O22          C23   1.274       .  A
C23         C808   1.484       .  S
O24         Zr36   2.490       .  S
O24          C26   1.296       .  A
O25         Zr39   2.391       .  S
O25          C26   1.278       .  A
C26         C798   1.497       .  S
O27         Zr36   2.491       .  S
O27          C29   1.295       .  A
O28         Zr40   2.365       .  S
O28          C29   1.274       .  A
C29         C788   1.481       .  S
O30         Zr33   2.468       .  S
O30          C32   1.292       .  A
O31         Zr39   2.354   1_545  S
O31          C32   1.272       .  A
C32         C818   1.474       .  S
Zr33         O34   2.437       .  S
Zr33         O35   2.435       .  S
Zr33         O42   2.287       .  S
Zr33         O43   2.286       .  S
Zr33         O41   2.370       .  S
Zr33         O45   2.391       .  S
O34          H54   0.990       .  S
O34          H59   0.990       .  S
O35          H55   0.990       .  S
Zr36         O37   2.435       .  S
Zr36         O38   2.435       .  S
Zr36         O42   2.281   1_565  S
Zr36         O46   2.292       .  S
Zr36         O41   2.378   1_565  S
Zr36         O44   2.388       .  S
O37          H53   0.990       .  S
O38          H52   0.990       .  S
O38          H62   0.990       .  S
Zr39         O42   2.263   1_565  S
Zr39         O44   2.376       .  S
Zr39         O45   2.379   1_565  S
Zr40         O43   2.264   1_565  S
Zr40         O46   2.264       .  S
Zr40         O41   2.374   1_565  S
O41          H49   0.965       .  S
O44          H48   0.966       .  S
O45          H50   0.966       .  S
O63         Zr75   2.496       .  S
O63          C65   1.296       .  A
O64        Zr101   2.350   1_455  S
O64          C65   1.270       .  A
C65         C761   1.486       .  S
O66         Zr78   2.489       .  S
O66          C68   1.294       .  A
O67        Zr102   2.364       .  S
O67          C68   1.273       .  A
C68         C688   1.482       .  S
O69         Zr78   2.476       .  S
O69          C71   1.293       .  A
O70        Zr101   2.361       .  S
O70          C71   1.272       .  A
C71         C698   1.480       .  S
O72         Zr75   2.482       .  S
O72          C74   1.295       .  A
O73        Zr102   2.374   1_455  S
O73          C74   1.275       .  A
C74         C751   1.483       .  S
Zr75         O76   2.435       .  S
Zr75         O77   2.435       .  S
Zr75         O81   2.282   1_455  S
Zr75        O105   2.294       .  S
Zr75         O82   2.385   1_455  S
Zr75        O107   2.379       .  S
O76         H119   0.990       .  S
O77         H118   0.990       .  S
O77         H122   0.990       .  S
Zr78         O79   2.439       .  S
Zr78         O80   2.435       .  S
Zr78         O81   2.287       .  S
Zr78        O108   2.290       .  S
Zr78         O82   2.372       .  S
Zr78        O106   2.384       .  S
O79         H120   0.990       .  S
O79         H123   0.990       .  S
O80         H113   0.990       .  S
O81        Zr101   2.259       .  S
O82        Zr102   2.382       .  S
O82         H109   0.965       .  S
O83         Zr95   2.508       .  S
O83          C85   1.299       .  A
O84        Zr102   2.368   1_455  S
O84          C85   1.274       .  A
C85         C728   1.491       .  S
O86         Zr98   2.491       .  S
O86          C88   1.296       .  A
O87        Zr101   2.360       .  S
O87          C88   1.272       .  A
C88         C718   1.483       .  S
O89         Zr98   2.483       .  S
O89          C91   1.295       .  A
O90        Zr102   2.372       .  S
O90          C91   1.275       .  A
C91         C708   1.482       .  S
O92         Zr95   2.491       .  S
O92          C94   1.297       .  A
O93        Zr101   2.355   1_455  S
O93          C94   1.271       .  A
C94         C741   1.482       .  S
Zr95         O96   2.438       .  S
Zr95         O97   2.435       .  S
Zr95        O104   2.291       .  S
Zr95        O105   2.291       .  S
Zr95        O103   2.369       .  S
Zr95        O107   2.385       .  S
O96         H116   0.990       .  S
O96         H121   0.990       .  S
O97         H117   0.990       .  S
Zr98         O99   2.434       .  S
Zr98        O100   2.436       .  S
Zr98        O104   2.283   1_655  S
Zr98        O108   2.296       .  S
Zr98        O103   2.376   1_655  S
Zr98        O106   2.384       .  S
O99         H115   0.990       .  S
O100        H114   0.990       .  S
O100        H124   0.990       .  S
Zr101       O104   2.260   1_655  S
Zr101       O106   2.371       .  S
Zr101       O107   2.373   1_655  S
Zr102       O105   2.268   1_655  S
Zr102       O108   2.268       .  S
Zr102       O103   2.379   1_655  S
O103        H111   0.965       .  S
O106        H110   0.967       .  S
O107        H112   0.966       .  S
O125       Zr137   2.482       .  S
O125        C127   1.293       .  A
O126       Zr163   2.370       .  S
O126        C127   1.274       .  A
C127        C658   1.475       .  S
O128       Zr140   2.490       .  S
O128        C130   1.296       .  A
O129       Zr164   2.355       .  S
O129        C130   1.272       .  A
C130        C668   1.485       .  S
O131       Zr140   2.498       .  S
O131        C133   1.297       .  A
O132       Zr163   2.369       .  S
O132        C133   1.274       .  A
C133        C678   1.491       .  S
O134       Zr137   2.484       .  S
O134        C136   1.294       .  A
O135       Zr164   2.374       .  S
O135        C136   1.275       .  A
C136        C648   1.488       .  S
Zr137       O138   2.435       .  S
Zr137       O139   2.437       .  S
Zr137       O143   2.296       .  S
Zr137       O167   2.284       .  S
Zr137       O144   2.386       .  S
Zr137       O169   2.376       .  S
O138        H181   0.990       .  S
O139        H180   0.990       .  S
O139        H184   0.990       .  S
Zr140       O141   2.435       .  S
Zr140       O142   2.435       .  S
Zr140       O143   2.295       .  S
Zr140       O170   2.282       .  S
Zr140       O144   2.392       .  S
Zr140       O168   2.375       .  S
O141        H182   0.990       .  S
O141        H185   0.990       .  S
O142        H175   0.990       .  S
O143       Zr163   2.265       .  S
O144       Zr164   2.374       .  S
O144        H171   0.966       .  S
O145       Zr157   2.480       .  S
O145        C147   1.295       .  A
O146       Zr164   2.359       .  S
O146        C147   1.272       .  A
C147        C628   1.480       .  S
O148       Zr160   2.483       .  S
O148        C150   1.294       .  A
O149       Zr163   2.362       .  S
O149        C150   1.273       .  A
C150        C618   1.475       .  S
O151       Zr160   2.486       .  S
O151        C153   1.295       .  A
O152       Zr164   2.369       .  S
O152        C153   1.274       .  A
C153        C611   1.487       .  S
O154       Zr157   2.502       .  S
O154        C156   1.298       .  A
O155       Zr163   2.368       .  S
O155        C156   1.274       .  A
C156        C638   1.490       .  S
Zr157       O158   2.435       .  S
Zr157       O159   2.436       .  S
Zr157       O166   2.284       .  S
Zr157       O167   2.290       .  S
Zr157       O165   2.388       .  S
Zr157       O169   2.378       .  S
O158        H178   0.990       .  S
O158        H183   0.990       .  S
O159        H179   0.990       .  S
Zr160       O161   2.436       .  S
Zr160       O162   2.438       .  S
Zr160       O166   2.290       .  S
Zr160       O170   2.281       .  S
Zr160       O165   2.385       .  S
Zr160       O168   2.380       .  S
O161        H177   0.990       .  S
O162        H176   0.990       .  S
O162        H186   0.990       .  S
Zr163       O166   2.265       .  S
Zr163       O168   2.377       .  S
Zr163       O169   2.376       .  S
Zr164       O167   2.260       .  S
Zr164       O170   2.262       .  S
Zr164       O165   2.377       .  S
O165        H173   0.966       .  S
O168        H172   0.965       .  S
O169        H174   0.965       .  S
O187       Zr199   2.448   1_556  S
O187       C1035   1.290       .  A
O188      Zr1071   2.465   1_556  S
O188       C1035   1.291       .  A
C189       O1033   1.288       .  A
C189       O1034   1.293       .  A
C189        C599   1.491       .  S
O190       Zr202   2.411       .  S
O190        C192   1.276       .  A
O191       Zr226   2.456       .  S
O191        C192   1.290       .  A
C192        C641   1.486       .  S
O193       Zr202   2.393       .  S
O193        C195   1.278       .  A
O194       Zr225   2.457       .  S
O194        C195   1.294       .  A
C195        C701   1.477       .  S
O196      Zr1045   2.426       .  S
O196        C198   1.287       .  A
O197       Zr226   2.483       .  S
O197        C198   1.296       .  A
C198        C604   1.506       .  S
Zr199      O1042   2.433       .  S
Zr199       O201   2.435       .  S
Zr199      O1046   2.433   1_554  S
Zr199       O229   2.376       .  S
Zr199       O231   2.363       .  S
Zr199      O1051   2.364   1_554  S
Zr199      O1052   2.373   1_554  S
O200      Zr1045   2.435       .  S
O200        H243   0.990       .  S
O201        H242   0.990       .  S
O201        H246   0.990       .  S
Zr202       O203   2.436       .  S
Zr202       O204   2.434       .  S
Zr202       O206   2.367       .  S
Zr202       O205   2.371       .  S
Zr202       O230   2.371       .  S
Zr202       O232   2.359       .  S
O203        H244   0.990       .  S
O203        H247   0.990       .  S
O204        H237   0.990       .  S
O205       Zr225   2.381       .  S
O205      Zr1045   2.366       .  S
O206       Zr226   2.392       .  S
O206      Zr1045   2.368       .  S
O206        H233   0.966       .  S
O207       Zr219   2.397       .  S
O207        C209   1.278       .  A
O208      Zr1072   2.457       .  S
O208        C209   1.293       .  A
C209        C631   1.482       .  S
O210       Zr222   2.546       .  S
O210       C1058   1.308       .  A
O211       Zr225   2.407       .  S
O211       C1058   1.286       .  A
C212       O1056   1.308       .  A
C212       O1057   1.286   1_554  A
C212        C591   1.509   1_554  S
O213       Zr222   2.539       .  S
O213        C215   1.308       .  A
O214       Zr226   2.424       .  S
O214        C215   1.290       .  A
C215        C596   1.527       .  S
O216       Zr219   2.405       .  S
O216        C218   1.273       .  A
O217      Zr1071   2.448       .  S
O217        C218   1.287       .  A
C218        C691   1.482       .  S
Zr219       O220   2.439       .  S
Zr219       O221   2.436       .  S
Zr219       O227   2.371       .  S
Zr219       O228   2.364       .  S
Zr219       O231   2.370       .  S
Zr219       O229   2.374       .  S
O220        H240   0.990       .  S
O220        H245   0.990       .  S
O221        H241   0.990       .  S
Zr222       O224   2.437       .  S
Zr222      O1069   2.434       .  S
Zr222       O232   2.380       .  S
Zr222       O230   2.387       .  S
Zr222      O1074   2.384       .  S
Zr222      O1073   2.393       .  S
O223      Zr1068   2.434       .  S
O223        H239   0.990       .  S
O224        H238   0.990       .  S
O224        H248   0.990       .  S
Zr225      O1034   2.474       .  S
Zr225      O1063   2.457       .  S
Zr225       O230   2.409       .  S
Zr225      O1074   2.405       .  S
Zr225      O1077   2.390       .  S
Zr226      O1054   2.452       .  S
Zr226       O232   2.404       .  S
Zr226      O1073   2.410       .  S
Zr226      O1075   2.382       .  S
O227      Zr1068   2.398       .  S
O227      Zr1072   2.415       .  S
O227        H235   0.966       .  S
O228      Zr1068   2.378       .  S
O228      Zr1071   2.400       .  S
O229      Zr1072   2.387       .  S
O230        H234   0.966       .  S
O231      Zr1071   2.394       .  S
O231        H236   0.966       .  S
O249       Zr261   2.446       .  S
O249       C1097   1.290       .  A
O250       Zr287   2.458       .  S
O250       C1097   1.291       .  A
C251       O1095   1.285       .  A
C251       O1096   1.295       .  A
C251        C587   1.492       .  S
O252       Zr264   2.404       .  S
O252        C254   1.273       .  A
O253       Zr288   2.454       .  S
O253        C254   1.288       .  A
C254        C721   1.481       .  S
O255       Zr264   2.385       .  S
O255        C257   1.277       .  A
O256      Zr1133   2.449       .  S
O256        C257   1.292       .  A
C257        C821   1.474       .  S
O258      Zr1107   2.417       .  S
O258        C260   1.285       .  A
O259       Zr288   2.492       .  S
O259        C260   1.298       .  A
C260        C600   1.507       .  S
Zr261      O1104   2.404       .  S
Zr261       O263   2.437   1_556  S
Zr261      O1108   2.435       .  S
Zr261       O291   2.378   1_556  S
Zr261       O293   2.358   1_556  S
Zr261      O1113   2.358       .  S
Zr261      O1114   2.376       .  S
O262      Zr1107   2.437       .  S
O262        H305   0.990       .  S
O263        H304   0.990       .  S
O263        H308   0.990       .  S
Zr264       O265   2.437       .  S
Zr264       O266   2.435       .  S
Zr264       O268   2.367       .  S
Zr264       O267   2.368       .  S
Zr264       O292   2.368       .  S
Zr264       O294   2.358       .  S
O265        H306   0.990       .  S
O265        H309   0.990       .  S
O266        H299   0.990       .  S
O267      Zr1107   2.364       .  S
O267      Zr1133   2.377       .  S
O268       Zr288   2.395       .  S
O268      Zr1107   2.368       .  S
O268        H295   0.966       .  S
O269       Zr281   2.407       .  S
O269        C271   1.280       .  A
O270      Zr1134   2.450       .  S
O270        C271   1.292       .  A
C271        C711   1.482       .  S
O272       Zr284   2.535       .  S
O272       C1120   1.305       .  A
O273       Zr287   2.393       .  S
O273        C274   1.283       .  A
C274       O1118   1.306       .  A
C274        C580   1.503       .  S
O275       Zr284   2.512       .  S
O275        C277   1.302       .  A
O276       Zr288   2.433       .  S
O276        C277   1.293       .  A
C277       C1430   1.518       .  S
O278       Zr281   2.408       .  S
O278        C280   1.273       .  A
O279       Zr287   2.448   1_554  S
O279        C280   1.286       .  A
C280        C811   1.483       .  S
Zr281       O282   2.438       .  S
Zr281       O283   2.435       .  S
Zr281       O289   2.368       .  S
Zr281       O290   2.363       .  S
Zr281       O293   2.373       .  S
Zr281       O291   2.371       .  S
O282        H302   0.990       .  S
O282        H307   0.990       .  S
O283        H303   0.990       .  S
Zr284       O286   2.434       .  S
Zr284      O1131   2.434       .  S
Zr284       O294   2.380       .  S
Zr284       O292   2.387       .  S
Zr284      O1136   2.368       .  S
Zr284      O1135   2.401       .  S
O285      Zr1130   2.434   1_554  S
O285        H301   0.990       .  S
O286        H300   0.990       .  S
O286        H310   0.990       .  S
Zr287      O1102   2.445       .  S
Zr287       O290   2.396   1_556  S
Zr287       O293   2.389   1_556  S
Zr287      O1113   2.373       .  S
Zr287      O1138   2.405       .  S
Zr288      O1116   2.447       .  S
Zr288       O294   2.403       .  S
Zr288      O1135   2.414       .  S
Zr288      O1137   2.384       .  S
O289      Zr1130   2.399   1_554  S
O289      Zr1134   2.416       .  S
O289        H297   0.966       .  S
O290      Zr1130   2.365   1_554  S
O291      Zr1134   2.387       .  S
O292      Zr1133   2.404       .  S
O292        H296   0.966       .  S
O293        H298   0.966       .  S
O311       Zr323   2.424       .  S
O311       C1159   1.286       .  A
O312       Zr349   2.516       .  S
O312       C1159   1.302       .  A
C313       O1157   1.285       .  A
C313       O1158   1.295       .  A
C313        C575   1.490       .  S
O314       Zr326   2.408       .  S
O314        C316   1.274       .  A
O315       Zr350   2.448       .  S
O315        C316   1.288       .  A
C316        C758   1.480       .  S
O317       Zr326   2.400       .  S
O317        C319   1.280       .  A
O318      Zr1195   2.445       .  S
O318        C319   1.292       .  A
C319        C781   1.477       .  S
O320      Zr1169   2.415       .  S
O320        C322   1.285       .  A
O321       Zr350   2.494       .  S
O321        C322   1.298       .  A
C322        C572   1.508       .  S
Zr323      O1166   2.432       .  S
Zr323       O325   2.436   1_556  S
Zr323      O1170   2.435       .  S
Zr323       O353   2.369   1_556  S
Zr323       O355   2.370   1_556  S
Zr323      O1175   2.368       .  S
Zr323      O1176   2.364       .  S
O324      Zr1169   2.435       .  S
O324        H367   0.990       .  S
O325        H366   0.990       .  S
O325        H370   0.990       .  S
Zr326       O327   2.436       .  S
Zr326       O328   2.434       .  S
Zr326       O330   2.367       .  S
Zr326       O329   2.368       .  S
Zr326       O354   2.368       .  S
Zr326       O356   2.363       .  S
O327        H368   0.990       .  S
O327        H371   0.990       .  S
O328        H361   0.990       .  S
O329      Zr1169   2.367       .  S
O329      Zr1195   2.381       .  S
O330       Zr350   2.396       .  S
O330      Zr1169   2.370       .  S
O330        H357   0.966       .  S
O331       Zr343   2.400       .  S
O331        C333   1.280       .  A
O332      Zr1196   2.455       .  S
O332        C333   1.293       .  A
C333        C748   1.482       .  S
O334       Zr346   2.531       .  S
O334       C1182   1.305       .  A
O335       Zr349   2.471       .  S
O335        C336   1.299       .  A
C336       O1180   1.300       .  A
C336        C567   1.521       .  S
O337       Zr346   2.521       .  S
O337        C339   1.304       .  A
O338       Zr350   2.433       .  S
O338        C339   1.292       .  A
C339       C1438   1.521       .  S
O340       Zr343   2.410       .  S
O340        C342   1.274       .  A
O341       Zr349   2.442   1_554  S
O341        C342   1.286       .  A
C342        C771   1.478       .  S
Zr343       O344   2.437       .  S
Zr343       O345   2.437       .  S
Zr343       O351   2.372       .  S
Zr343       O352   2.366       .  S
Zr343       O355   2.368       .  S
Zr343       O353   2.368       .  S
O344        H364   0.990       .  S
O344        H369   0.990       .  S
O345        H365   0.990       .  S
Zr346       O348   2.434       .  S
Zr346      O1193   2.433       .  S
Zr346       O356   2.373       .  S
Zr346       O354   2.387       .  S
Zr346      O1198   2.372       .  S
Zr346      O1197   2.396       .  S
O347      Zr1192   2.435   1_554  S
O347        H363   0.990       .  S
O348        H362   0.990       .  S
O348        H372   0.990       .  S
Zr349      O1164   2.451       .  S
Zr349       O352   2.411   1_556  S
Zr349       O355   2.405   1_556  S
Zr349      O1175   2.388       .  S
Zr349      O1200   2.411       .  S
Zr350      O1178   2.446       .  S
Zr350       O356   2.400       .  S
Zr350      O1197   2.409       .  S
Zr350      O1199   2.382       .  S
O351      Zr1192   2.385   1_554  S
O351      Zr1196   2.405       .  S
O351        H359   0.966       .  S
O352      Zr1192   2.379   1_554  S
O353      Zr1196   2.386       .  S
O354      Zr1195   2.403       .  S
O354        H358   0.966       .  S
O355        H360   0.966       .  S
O373       Zr385   2.426       .  S
O373        C375   1.284       .  A
O374      Zr1257   2.464       .  S
O374        C375   1.295       .  A
C375        C801   1.495       .  S
O376      Zr1234   2.438       .  S
O376        C378   1.287       .  A
O377       Zr412   2.474       .  S
O377        C378   1.293       .  A
C378        C563   1.491       .  S
O379       Zr388   2.436   1_556  S
O379       C1227   1.288       .  A
O380       Zr411   2.499       .  S
O380       C1227   1.300       .  A
C381       O1225   1.288       .  A
C381       O1226   1.294       .  A
C381        C576   1.505       .  S
O382       Zr385   2.408       .  S
O382        C384   1.272       .  A
O383       Zr412   2.438       .  S
O383        C384   1.284       .  A
C384        C661   1.478       .  S
Zr385       O386   2.437       .  S
Zr385       O387   2.439       .  S
Zr385       O391   2.371       .  S
Zr385       O392   2.386       .  S
Zr385       O415   2.371       .  S
Zr385       O417   2.371       .  S
O386        H429   0.990       .  S
O387        H428   0.990       .  S
O387        H432   0.990       .  S
Zr388      O1222   2.436       .  S
Zr388       O390   2.435       .  S
Zr388      O1235   2.435   1_554  S
Zr388       O416   2.361       .  S
Zr388       O418   2.364       .  S
Zr388      O1238   2.371   1_554  S
Zr388      O1237   2.373   1_554  S
O389      Zr1234   2.436       .  S
O389        H430   0.990       .  S
O389        H433   0.990       .  S
O390        H423   0.990       .  S
O391      Zr1234   2.370       .  S
O391      Zr1257   2.377       .  S
O392       Zr412   2.405       .  S
O392      Zr1234   2.359       .  S
O392        H419   0.966       .  S
O393       Zr405   2.544       .  S
O393       C1241   1.307       .  A
O394       Zr412   2.422       .  S
O394       C1241   1.289       .  A
C395       O1239   1.306       .  A
C395       O1240   1.290       .  A
C395       C1441   1.515       .  S
O396       Zr408   2.411       .  S
O396        C398   1.273       .  A
O397       Zr411   2.439   1_554  S
O397        C398   1.285       .  A
C398        C791   1.478       .  S
O399       Zr408   2.413       .  S
O399        C401   1.282       .  A
O400      Zr1258   2.455       .  S
O400        C401   1.294       .  A
C401        C651   1.486       .  S
O402       Zr405   2.532       .  S
O402       C1250   1.306       .  A
O403      Zr1257   2.422       .  S
O403       C1250   1.290       .  A
C404       O1248   1.303       .  A
C404       O1249   1.293       .  A
C404        C579   1.517       .  S
Zr405       O407   2.434       .  S
Zr405      O1252   2.436       .  S
Zr405       O417   2.403       .  S
Zr405       O415   2.372       .  S
Zr405      O1259   2.401       .  S
Zr405      O1260   2.374       .  S
O406      Zr1251   2.436   1_554  S
O406        H426   0.990       .  S
O406        H431   0.990       .  S
O407        H427   0.990       .  S
Zr408       O409   2.435       .  S
Zr408       O410   2.435       .  S
Zr408       O414   2.363       .  S
Zr408       O413   2.377       .  S
Zr408       O418   2.367       .  S
Zr408       O416   2.380       .  S
O409        H425   0.990       .  S
O410        H424   0.990       .  S
O410        H434   0.990       .  S
Zr411      O1220   2.467       .  S
Zr411      O1249   2.431       .  S
Zr411       O414   2.412   1_556  S
Zr411       O416   2.401   1_556  S
Zr411      O1237   2.374       .  S
Zr411      O1263   2.411       .  S
Zr412      O1246   2.456       .  S
Zr412       O415   2.405       .  S
Zr412      O1259   2.404       .  S
Zr412      O1264   2.376       .  S
O413      Zr1251   2.393   1_554  S
O413      Zr1258   2.407       .  S
O413        H421   0.966       .  S
O414      Zr1251   2.376   1_554  S
O416        H420   0.966       .  S
O417      Zr1257   2.408       .  S
O417        H422   0.966       .  S
O418      Zr1258   2.378       .  S
O435       Zr447   2.440   1_556  S
O435       C1283   1.287       .  A
O436      Zr1319   2.482       .  S
O436       C1283   1.295       .  A
C437       O1281   1.288       .  A
C437       O1282   1.292       .  A
C437        C571   1.490       .  S
O438       Zr450   2.405       .  S
O438        C440   1.274       .  A
O439       Zr474   2.459       .  S
O439        C440   1.290       .  A
C440        C681   1.486       .  S
O441       Zr450   2.387       .  S
O441        C443   1.278       .  A
O442       Zr473   2.461       .  S
O442        C443   1.294       .  A
C443        C738   1.479       .  S
O444      Zr1293   2.420       .  S
O444        C446   1.286       .  A
O445       Zr474   2.491       .  S
O445        C446   1.298       .  A
C446        C564   1.505       .  S
Zr447      O1290   2.410       .  S
Zr447       O449   2.436       .  S
Zr447      O1294   2.434   1_554  S
Zr447       O477   2.370       .  S
Zr447       O479   2.360       .  S
Zr447      O1299   2.357   1_554  S
Zr447      O1300   2.374   1_554  S
O448      Zr1293   2.434       .  S
O448        H491   0.990       .  S
O449        H490   0.990       .  S
O449        H494   0.990       .  S
Zr450       O451   2.437       .  S
Zr450       O452   2.433       .  S
Zr450       O454   2.367       .  S
Zr450       O453   2.367       .  S
Zr450       O478   2.368       .  S
Zr450       O480   2.357       .  S
O451        H492   0.990       .  S
O451        H495   0.990       .  S
O452        H485   0.990       .  S
O453       Zr473   2.373       .  S
O453      Zr1293   2.360       .  S
O454       Zr474   2.388       .  S
O454      Zr1293   2.369       .  S
O454        H481   0.966       .  S
O455       Zr467   2.392       .  S
O455        C457   1.277       .  A
O456      Zr1320   2.459       .  S
O456        C457   1.294       .  A
C457        C671   1.477       .  S
O458       Zr470   2.543       .  S
O458       C1306   1.307       .  A
O459       Zr473   2.401       .  S
O459       C1306   1.285       .  A
C460       O1304   1.309       .  A
C460       O1305   1.284       .  A
C460        C583   1.503       .  S
O461       Zr470   2.543       .  S
O461        C463   1.309       .  A
O462       Zr474   2.426       .  S
O462        C463   1.291       .  A
C463        C560   1.528       .  S
O464       Zr467   2.399       .  S
O464        C466   1.274       .  A
O465      Zr1319   2.474   1_554  S
O465        C466   1.292       .  A
C466        C731   1.490       .  S
Zr467       O468   2.439       .  S
Zr467       O469   2.436       .  S
Zr467       O475   2.366       .  S
Zr467       O476   2.356       .  S
Zr467       O479   2.373       .  S
Zr467       O477   2.367       .  S
O468        H488   0.990       .  S
O468        H493   0.990       .  S
O469        H489   0.990       .  S
Zr470       O472   2.436       .  S
Zr470      O1317   2.433       .  S
Zr470       O480   2.377       .  S
Zr470       O478   2.392       .  S
Zr470      O1322   2.381       .  S
Zr470      O1321   2.393       .  S
O471      Zr1316   2.433       .  S
O471        H487   0.990       .  S
O472        H486   0.990       .  S
O472        H496   0.990       .  S
Zr473      O1282   2.470       .  S
Zr473      O1311   2.461       .  S
Zr473       O478   2.410       .  S
Zr473      O1322   2.401       .  S
Zr473      O1325   2.391       .  S
Zr474      O1302   2.450       .  S
Zr474       O480   2.401       .  S
Zr474      O1321   2.413       .  S
Zr474      O1323   2.381       .  S
O475      Zr1316   2.390       .  S
O475      Zr1320   2.408       .  S
O475        H483   0.966       .  S
O476      Zr1316   2.388       .  S
O476      Zr1319   2.403   1_554  S
O477      Zr1320   2.377       .  S
O478        H482   0.966       .  S
O479      Zr1319   2.382   1_554  S
O479        H484   0.966       .  S
O497       Zr509   2.424       .  S
O497        C499   1.284       .  A
O498      Zr1381   2.455       .  S
O498        C499   1.293       .  A
C499        C841   1.491       .  S
O500      Zr1358   2.429       .  S
O500        C502   1.286       .  A
O501       Zr536   2.482       .  S
O501        C502   1.295       .  A
C502        C603   1.492       .  S
O503       Zr512   2.430       .  S
O503       C1351   1.286       .  A
O504       Zr535   2.477       .  S
O504       C1351   1.295       .  A
C505       O1349   1.288       .  A
C505       O1350   1.295       .  A
C505        C588   1.505       .  S
O506       Zr509   2.406       .  S
O506        C508   1.272       .  A
O507       Zr536   2.443       .  S
O507        C508   1.285       .  A
C508        C621   1.478       .  S
Zr509       O510   2.438       .  S
Zr509       O511   2.440       .  S
Zr509       O515   2.368       .  S
Zr509       O516   2.383       .  S
Zr509       O539   2.372       .  S
Zr509       O541   2.372       .  S
O510        H553   0.990       .  S
O511        H552   0.990       .  S
O511        H556   0.990       .  S
Zr512      O1346   2.433   1_556  S
Zr512       O514   2.436   1_556  S
Zr512      O1359   2.437       .  S
Zr512       O540   2.369   1_556  S
Zr512       O542   2.372   1_556  S
Zr512      O1362   2.361       .  S
Zr512      O1361   2.369       .  S
O513      Zr1358   2.436       .  S
O513        H554   0.990       .  S
O513        H557   0.990       .  S
O514        H547   0.990       .  S
O515      Zr1358   2.366       .  S
O515      Zr1381   2.376       .  S
O516       Zr536   2.404       .  S
O516      Zr1358   2.359       .  S
O516        H543   0.966       .  S
O517       Zr529   2.543       .  S
O517        C519   1.307       .  A
O518       Zr536   2.427       .  S
O518        C519   1.290       .  A
C519        C559   1.516       .  S
O520       Zr532   2.399       .  S
O520        C522   1.272       .  A
O521       Zr535   2.452   1_554  S
O521        C522   1.288       .  A
C522        C831   1.478       .  S
O523       Zr532   2.399       .  S
O523        C525   1.279       .  A
O524      Zr1382   2.460       .  S
O524        C525   1.294       .  A
C525        C608   1.483       .  S
O526       Zr529   2.524       .  S
O526       C1374   1.305       .  A
O527      Zr1381   2.421       .  S
O527       C1374   1.290       .  A
C528       O1372   1.310       .  A
C528       O1373   1.287       .  A
C528        C568   1.514       .  S
Zr529       O531   2.433       .  S
Zr529      O1376   2.435       .  S
Zr529       O541   2.404       .  S
Zr529       O539   2.370       .  S
Zr529      O1383   2.398       .  S
Zr529      O1384   2.375       .  S
O530      Zr1375   2.435   1_554  S
O530        H550   0.990       .  S
O530        H555   0.990       .  S
O531        H551   0.990       .  S
Zr532       O533   2.435       .  S
Zr532       O534   2.439       .  S
Zr532       O538   2.362       .  S
Zr532       O537   2.372       .  S
Zr532       O542   2.363       .  S
Zr532       O540   2.375       .  S
O533        H549   0.990       .  S
O534        H548   0.990       .  S
O534        H558   0.990       .  S
Zr535      O1344   2.457       .  S
Zr535      O1373   2.414       .  S
Zr535       O538   2.398   1_556  S
Zr535       O540   2.398   1_556  S
Zr535      O1361   2.378       .  S
Zr535      O1387   2.407       .  S
Zr536      O1370   2.453       .  S
Zr536       O539   2.405       .  S
Zr536      O1383   2.407       .  S
Zr536      O1388   2.378       .  S
O537      Zr1375   2.405   1_554  S
O537      Zr1382   2.408       .  S
O537        H545   0.966       .  S
O538      Zr1375   2.367   1_554  S
O540        H544   0.966       .  S
O541      Zr1381   2.411       .  S
O541        H546   0.966       .  S
O542      Zr1382   2.377       .  S
C559        C560   1.367       .  D
C559        H561   1.087       .  S
C560       H1408   1.085       .  S
H562       C1406   1.087       .  S
C563        C564   1.357       .  D
C563        H565   1.088       .  S
C564       H1412   1.085       .  S
H566       C1410   1.085       .  S
C567        C568   1.357   1_565  D
C567        H569   1.086       .  S
C568       H1416   1.087       .  S
H570       C1414   1.085       .  S
C571        C572   1.360       .  D
C571       H1419   1.087       .  S
C572        H574   1.085       .  S
H573       C1417   1.087       .  S
C575        C576   1.355       .  D
C575        H577   1.088       .  S
C576       H1424   1.085       .  S
H578       C1422   1.085       .  S
C579        C580   1.358   1_565  D
C579       H1427   1.085   1_556  S
C580        H582   1.087   1_545  S
H581       C1425   1.085       .  S
C583        C584   1.356   1_455  D
C583       H1431   1.087       .  S
C584       C1123   1.517       .  S
C584        H586   1.085   1_554  S
H585       C1429   1.087   1_655  S
C587        C588   1.355       .  D
C587        H589   1.088       .  S
C588       H1436   1.085       .  S
H590       C1434   1.087       .  S
C591        C592   1.360   1_656  D
C591       H1439   1.087       .  S
C592       C1185   1.521       .  S
C592        H594   1.085       .  S
H593       C1437   1.087   1_455  S
C595       C1241   1.515       .  S
C595        C596   1.366       .  D
C595        H597   1.087       .  S
C596       H1444   1.085       .  S
H598       C1442   1.085       .  S
C599        C600   1.360       .  D
C599        H601   1.087       .  S
C600       H1448   1.085       .  S
H602       C1446   1.085       .  S
C603        C604   1.356       .  D
C603       H1451   1.088       .  S
C604        H606   1.085       .  S
H605       C1449   1.085       .  S
C607        C608   1.414       .  A
C607        C612   1.399       .  A
C607        H613   1.083       .  S
C608        C609   1.399       .  A
C609        C610   1.397       .  A
C609        H614   1.083       .  S
C610        C611   1.415       .  A
C610        H615   1.083       .  S
C611        C612   1.400       .  A
C612        H616   1.083       .  S
C617        C618   1.410       .  A
C617        C622   1.394       .  A
C617        H623   1.084       .  S
C618        C619   1.400       .  A
C619        C620   1.399       .  A
C619        H624   1.083       .  S
C620        C621   1.411       .  A
C620        H625   1.082       .  S
C621        C622   1.400       .  A
C622        H626   1.083       .  S
C627        C628   1.396       .  A
C627        C632   1.394       .  A
C627        H633   1.083       .  S
C628        C629   1.415       .  A
C629        C630   1.398       .  A
C629        H634   1.083       .  S
C630        C631   1.399       .  A
C630        H635   1.083       .  S
C631        C632   1.415       .  A
C632        H636   1.082       .  S
C637        C638   1.401       .  A
C637        C642   1.403       .  A
C637        H643   1.083       .  S
C638        C639   1.415       .  A
C639        C640   1.397       .  A
C639        H644   1.083       .  S
C640        C641   1.400       .  A
C640        H645   1.083       .  S
C641        C642   1.414       .  A
C642        H646   1.083       .  S
C647        C648   1.413       .  A
C647        C652   1.396       .  A
C647        H653   1.083       .  S
C648        C649   1.402       .  A
C649        C650   1.402       .  A
C649        H654   1.083       .  S
C650        C651   1.413       .  A
C650        H655   1.083       .  S
C651        C652   1.400       .  A
C652        H656   1.083       .  S
C657        C658   1.409       .  A
C657        C662   1.395       .  A
C657        H663   1.084       .  S
C658        C659   1.401       .  A
C659        C660   1.399       .  A
C659        H664   1.083       .  S
C660        C661   1.410       .  A
C660        H665   1.082       .  S
C661        C662   1.401       .  A
C662        H666   1.083       .  S
C667        C668   1.417       .  A
C667        C672   1.394       .  A
C667        H673   1.083       .  S
C668        C669   1.399       .  A
C669        C670   1.399       .  A
C669        H674   1.083       .  S
C670        C671   1.414       .  A
C670        H675   1.083       .  S
C671        C672   1.395       .  A
C672        H676   1.083       .  S
C677        C678   1.416       .  A
C677        C682   1.396       .  A
C677        H683   1.083       .  S
C678        C679   1.401       .  A
C679        C680   1.403       .  A
C679        H684   1.083       .  S
C680        C681   1.415       .  A
C680        H685   1.083       .  S
C681        C682   1.398       .  A
C682        H686   1.083       .  S
C687        C688   1.413       .  A
C687        C692   1.396       .  A
C687        H693   1.083       .  S
C688        C689   1.400       .  A
C689        C690   1.399       .  A
C689        H694   1.083       .  S
C690        C691   1.412       .  A
C690        H695   1.082       .  S
C691        C692   1.400       .  A
C692        H696   1.083       .  S
C697        C698   1.399       .  A
C697        C702   1.398       .  A
C697        H703   1.083       .  S
C698        C699   1.414       .  A
C699        C700   1.393       .  A
C699        H704   1.083       .  S
C700        C701   1.397       .  A
C700        H705   1.083       .  S
C701        C702   1.414       .  A
C702        H706   1.083       .  S
C707        C708   1.398       .  A
C707        C712   1.396       .  A
C707        H713   1.083       .  S
C708        C709   1.415       .  A
C709        C710   1.397       .  A
C709        H714   1.083       .  S
C710        C711   1.399       .  A
C710        H715   1.083       .  S
C711        C712   1.414       .  A
C712        H716   1.082       .  S
C717        C718   1.413       .  A
C717        C722   1.395       .  A
C717        H723   1.083       .  S
C718        C719   1.400       .  A
C719        C720   1.402       .  A
C719        H724   1.083       .  S
C720        C721   1.412       .  A
C720        H725   1.083       .  S
C721        C722   1.400       .  A
C722        H726   1.083       .  S
C727        C728   1.416       .  A
C727        C732   1.401       .  A
C727        H733   1.083       .  S
C728        C729   1.400       .  A
C729        C730   1.401       .  A
C729        H734   1.083       .  S
C730        C731   1.415       .  A
C730        H735   1.082       .  S
C731        C732   1.400       .  A
C732        H736   1.083       .  S
C737        C738   1.397       .  A
C737        C742   1.397       .  A
C737        H743   1.083       .  S
C738        C739   1.414       .  A
C739        C740   1.396       .  A
C739        H744   1.083       .  S
C740        C741   1.397       .  A
C740        H745   1.083       .  S
C741        C742   1.416       .  A
C742        H746   1.083       .  S
C747        C748   1.399       .  A
C747        C752   1.397       .  A
C747        H753   1.083       .  S
C748        C749   1.414       .  A
C749        C750   1.396       .  A
C749        H754   1.083       .  S
C750        C751   1.398       .  A
C750        H755   1.083       .  S
C751        C752   1.415       .  A
C752        H756   1.083       .  S
C757        C758   1.397       .  A
C757        C762   1.392       .  A
C757        H763   1.083       .  S
C758        C759   1.413       .  A
C759        C760   1.402       .  A
C759        H764   1.082       .  S
C760        C761   1.400       .  A
C760        H765   1.083       .  S
C761        C762   1.415       .  A
C762        H766   1.083       .  S
C767        C768   1.401       .  A
C767        C772   1.400       .  A
C767        H773   1.083       .  S
C768        C769   1.410       .  A
C769        C770   1.394       .  A
C769        H774   1.083       .  S
C770        C771   1.400       .  A
C770        H775   1.083       .  S
C771        C772   1.411       .  A
C772        H776   1.082       .  S
C777        C778   1.399       .  A
C777        C782   1.398       .  A
C777        H783   1.083       .  S
C778        C779   1.414       .  A
C779        C780   1.391       .  A
C779        H784   1.083       .  S
C780        C781   1.397       .  A
C780        H785   1.083       .  S
C781        C782   1.413       .  A
C782        H786   1.083       .  S
C787        C788   1.402       .  A
C787        C792   1.404       .  A
C787        H793   1.083       .  S
C788        C789   1.410       .  A
C789        C790   1.392       .  A
C789        H794   1.083       .  S
C790        C791   1.399       .  A
C790        H795   1.083       .  S
C791        C792   1.411       .  A
C792        H796   1.083       .  S
C797        C798   1.415       .  A
C797        C802   1.402       .  A
C797        H803   1.083       .  S
C798        C799   1.403       .  A
C799        C800   1.404       .  A
C799        H804   1.083       .  S
C800        C801   1.414       .  A
C800        H805   1.083       .  S
C801        C802   1.402       .  A
C802        H806   1.083       .  S
C807        C808   1.411       .  A
C807        C812   1.395       .  A
C807        H813   1.082       .  S
C808        C809   1.401       .  A
C809        C810   1.403       .  A
C809        H814   1.083       .  S
C810        C811   1.413       .  A
C810        H815   1.082       .  S
C811        C812   1.399       .  A
C812        H816   1.083       .  S
C817        C818   1.397       .  A
C817        C822   1.394       .  A
C817        H823   1.083       .  S
C818        C819   1.413       .  A
C819        C820   1.390       .  A
C819        H824   1.083       .  S
C820        C821   1.396       .  A
C820        H825   1.083       .  S
C821        C822   1.414       .  A
C822        H826   1.083       .  S
C827        C828   1.399       .  A
C827        C832   1.398       .  A
C827        H833   1.083       .  S
C828        C829   1.412       .  A
C829        C830   1.394       .  A
C829        H834   1.082       .  S
C830        C831   1.398       .  A
C830        H835   1.083       .  S
C831        C832   1.413       .  A
C832        H836   1.082       .  S
C837        C838   1.402       .  A
C837        C842   1.402       .  A
C837        H843   1.083       .  S
C838        C839   1.415       .  A
C839        C840   1.401       .  A
C839        H844   1.083       .  S
C840        C841   1.402       .  A
C840        H845   1.083       .  S
C841        C842   1.413       .  A
C842        H846   1.083       .  S
O847       Zr859   2.487       .  S
O847        C849   1.296       .  A
O848       Zr885   2.378       .  S
O848        C849   1.276       .  A
C849       C1684   1.490       .  S
O850       Zr862   2.499       .  S
O850        C852   1.297       .  A
O851       Zr886   2.358   1_565  S
O851        C852   1.272       .  A
C852       C1614   1.483       .  S
O853       Zr862   2.477       .  S
O853        C855   1.294       .  A
O854       Zr885   2.365   1_565  S
O854        C855   1.274       .  A
C855       C1624   1.480       .  S
O856       Zr859   2.501       .  S
O856        C858   1.298       .  A
O857       Zr886   2.366       .  S
O857        C858   1.274       .  A
C858       C1674   1.487       .  S
Zr859       O860   2.435       .  S
Zr859       O861   2.435       .  S
Zr859       O865   2.284       .  S
Zr859       O889   2.294       .  S
Zr859       O866   2.374       .  S
Zr859       O891   2.392       .  S
O860        H903   0.990       .  S
O861        H902   0.990       .  S
O861        H906   0.991       .  S
Zr862       O863   2.437       .  S
Zr862       O864   2.435       .  S
Zr862       O865   2.285   1_565  S
Zr862       O892   2.289       .  S
Zr862       O866   2.369   1_565  S
Zr862       O890   2.395       .  S
O863        H904   0.990       .  S
O863        H907   0.990       .  S
O864        H897   0.990       .  S
O865       Zr885   2.264       .  S
O866       Zr886   2.375       .  S
O866        H893   0.965       .  S
O867       Zr879   2.482       .  S
O867        C869   1.293       .  A
O868       Zr886   2.366       .  S
O868        C869   1.273       .  A
C869       C1654   1.475       .  S
O870       Zr882   2.488       .  S
O870        C872   1.296       .  A
O871       Zr885   2.391   1_565  S
O871        C872   1.278       .  A
C872       C1644   1.496       .  S
O873       Zr882   2.485       .  S
O873        C875   1.294       .  A
O874       Zr886   2.372   1_565  S
O874        C875   1.275       .  A
C875       C1634   1.481       .  S
O876       Zr879   2.472       .  S
O876        C878   1.293       .  A
O877       Zr885   2.363       .  S
O877        C878   1.273       .  A
C878       C1664   1.479       .  S
Zr879       O880   2.438       .  S
Zr879       O881   2.434       .  S
Zr879       O888   2.288       .  S
Zr879       O889   2.290       .  S
Zr879       O887   2.374       .  S
Zr879       O891   2.385       .  S
O880        H900   0.990       .  S
O880        H905   0.990       .  S
O881        H901   0.990       .  S
Zr882       O883   2.435       .  S
Zr882       O884   2.435       .  S
Zr882       O888   2.285   1_565  S
Zr882       O892   2.289       .  S
Zr882       O887   2.384   1_565  S
Zr882       O890   2.386       .  S
O883        H899   0.990       .  S
O884        H898   0.990       .  S
O884        H908   0.990       .  S
Zr885       O888   2.262       .  S
Zr885       O890   2.380   1_545  S
Zr885       O891   2.382       .  S
Zr886       O889   2.264       .  S
Zr886       O892   2.264   1_545  S
Zr886       O887   2.374       .  S
O887        H895   0.966       .  S
O890        H894   0.966       .  S
O891        H896   0.966       .  S
O909       Zr921   2.492       .  S
O909        C911   1.296       .  A
O910       Zr947   2.357       .  S
O910        C911   1.271       .  A
C911       C1607   1.487       .  S
O912       Zr924   2.492       .  S
O912        C914   1.295       .  A
O913       Zr948   2.374   1_655  S
O913        C914   1.274       .  A
C914       C1534   1.481       .  S
O915       Zr924   2.477       .  S
O915        C917   1.294       .  A
O916       Zr947   2.354   1_655  S
O916        C917   1.271       .  A
C917       C1544   1.474       .  S
O918       Zr921   2.478       .  S
O918        C920   1.294       .  A
O919       Zr948   2.381       .  S
O919        C920   1.277       .  A
C920       C1597   1.484       .  S
Zr921       O922   2.435       .  S
Zr921       O923   2.436       .  S
Zr921       O927   2.279   1_455  S
Zr921       O951   2.297       .  S
Zr921       O928   2.380   1_455  S
Zr921       O953   2.384       .  S
O922        H965   0.990       .  S
O923        H964   0.990       .  S
O923        H968   0.990       .  S
Zr924       O925   2.437       .  S
Zr924       O926   2.434       .  S
Zr924       O927   2.284       .  S
Zr924       O954   2.289       .  S
Zr924       O928   2.372       .  S
Zr924       O952   2.388       .  S
O925        H966   0.990       .  S
O925        H969   0.990       .  S
O926        H959   0.990       .  S
O927       Zr947   2.259   1_655  S
O928       Zr948   2.381   1_655  S
O928        H955   0.965       .  S
O929       Zr941   2.501       .  S
O929        C931   1.297       .  A
O930       Zr948   2.372       .  S
O930        C931   1.274       .  A
C931       C1574   1.487       .  S
O932       Zr944   2.504       .  S
O932        C934   1.298       .  A
O933       Zr947   2.358   1_655  S
O933        C934   1.271       .  A
C934       C1564   1.493       .  S
O935       Zr944   2.487       .  S
O935        C937   1.296       .  A
O936       Zr948   2.378   1_655  S
O936        C937   1.276       .  A
C937       C1554   1.486       .  S
O938       Zr941   2.489       .  S
O938        C940   1.296       .  A
O939       Zr947   2.358       .  S
O939        C940   1.271       .  A
C940       C1587   1.483       .  S
Zr941       O942   2.438       .  S
Zr941       O943   2.436       .  S
Zr941       O950   2.288       .  S
Zr941       O951   2.287       .  S
Zr941       O949   2.379       .  S
Zr941       O953   2.385       .  S
O942        H962   0.990       .  S
O942        H967   0.991       .  S
O943        H963   0.990       .  S
Zr944       O945   2.435       .  S
Zr944       O946   2.435       .  S
Zr944       O950   2.282   1_655  S
Zr944       O954   2.297       .  S
Zr944       O949   2.379   1_655  S
Zr944       O952   2.377       .  S
O945        H961   0.990       .  S
O946        H960   0.990       .  S
O946        H970   0.990       .  S
Zr947       O950   2.261       .  S
Zr947       O952   2.374   1_455  S
Zr947       O953   2.373       .  S
Zr948       O951   2.270       .  S
Zr948       O954   2.269   1_455  S
Zr948       O949   2.385       .  S
O949        H957   0.965       .  S
O952        H956   0.966       .  S
O953        H958   0.966       .  S
O971       Zr983   2.496       .  S
O971        C973   1.296       .  A
O972      Zr1009   2.373       .  S
O972        C973   1.275       .  A
C973       C1504   1.485       .  S
O974       Zr986   2.474       .  S
O974        C976   1.293       .  A
O975      Zr1010   2.373       .  S
O975        C976   1.275       .  A
C976       C1514   1.484       .  S
O977       Zr986   2.492       .  S
O977        C979   1.296       .  A
O978      Zr1009   2.368       .  S
O978        C979   1.274       .  A
C979       C1524   1.488       .  S
O980       Zr983   2.492       .  S
O980        C982   1.296       .  A
O981      Zr1010   2.374       .  S
O981        C982   1.275       .  A
C982       C1494   1.492       .  S
Zr983       O984   2.434       .  S
Zr983       O985   2.436       .  S
Zr983       O989   2.290       .  S
Zr983      O1013   2.284       .  S
Zr983       O990   2.388       .  S
Zr983      O1015   2.376       .  S
O984       H1027   0.990       .  S
O985       H1026   0.990       .  S
O985       H1030   0.990       .  S
Zr986       O987   2.435       .  S
Zr986       O988   2.435       .  S
Zr986       O989   2.289       .  S
Zr986      O1016   2.289       .  S
Zr986       O990   2.389       .  S
Zr986      O1014   2.369       .  S
O987       H1028   0.990       .  S
O987       H1031   0.990       .  S
O988       H1021   0.990       .  S
O989      Zr1009   2.264       .  S
O990      Zr1010   2.376       .  S
O990       H1017   0.966       .  S
O991      Zr1003   2.486       .  S
O991        C993   1.295       .  A
O992      Zr1010   2.366       .  S
O992        C993   1.274       .  A
C993       C1474   1.486       .  S
O994      Zr1006   2.502       .  S
O994        C996   1.297       .  A
O995      Zr1009   2.371       .  S
O995        C996   1.275       .  A
C996       C1464   1.487       .  S
O997      Zr1006   2.491       .  S
O997        C999   1.296       .  A
O998      Zr1010   2.363       .  S
O998        C999   1.273       .  A
C999       C1457   1.486       .  S
O1000     Zr1003   2.496       .  S
O1000      C1002   1.297       .  A
O1001     Zr1009   2.364       .  S
O1001      C1002   1.274       .  A
C1002      C1484   1.488       .  S
Zr1003     O1004   2.436       .  S
Zr1003     O1005   2.435       .  S
Zr1003     O1012   2.291       .  S
Zr1003     O1013   2.287       .  S
Zr1003     O1011   2.389       .  S
Zr1003     O1015   2.376       .  S
O1004      H1024   0.990       .  S
O1004      H1029   0.990       .  S
O1005      H1025   0.990       .  S
Zr1006     O1007   2.436       .  S
Zr1006     O1008   2.438       .  S
Zr1006     O1012   2.289       .  S
Zr1006     O1016   2.291       .  S
Zr1006     O1011   2.386       .  S
Zr1006     O1014   2.378       .  S
O1007      H1023   0.990       .  S
O1008      H1022   0.990       .  S
O1008      H1032   0.990       .  S
Zr1009     O1012   2.267       .  S
Zr1009     O1014   2.378       .  S
Zr1009     O1015   2.379       .  S
Zr1010     O1013   2.261       .  S
Zr1010     O1016   2.267       .  S
Zr1010     O1011   2.379       .  S
O1011      H1019   0.966       .  S
O1014      H1018   0.965       .  S
O1015      H1020   0.965       .  S
O1033     Zr1045   2.440       .  S
C1035      C1445   1.492       .  S
O1036     Zr1048   2.401       .  S
O1036      C1038   1.273       .  A
O1037     Zr1072   2.457   1_556  S
O1037      C1038   1.290       .  A
C1038      C1487   1.483       .  S
O1039     Zr1048   2.384       .  S
O1039      C1041   1.277       .  A
O1040     Zr1071   2.452   1_556  S
O1040      C1041   1.292       .  A
C1041      C1547   1.473       .  S
O1042      C1044   1.286       .  A
O1043     Zr1072   2.492       .  S
O1043      C1044   1.298       .  A
C1044      C1450   1.491   1_554  S
Zr1045     O1047   2.437       .  S
Zr1045     O1075   2.375       .  S
Zr1045     O1077   2.360       .  S
O1046      H1089   0.990       .  S
O1047      H1088   0.990       .  S
O1047      H1092   0.990       .  S
Zr1048     O1049   2.436       .  S
Zr1048     O1050   2.433       .  S
Zr1048     O1052   2.360       .  S
Zr1048     O1051   2.368       .  S
Zr1048     O1076   2.361       .  S
Zr1048     O1078   2.355       .  S
O1049      H1090   0.990       .  S
O1049      H1093   0.990       .  S
O1050      H1083   0.990       .  S
O1051     Zr1071   2.375   1_556  S
O1052     Zr1072   2.391   1_556  S
O1052      H1079   0.965       .  S
O1053     Zr1065   2.406       .  S
O1053      C1055   1.281       .  A
O1054      C1055   1.293       .  A
C1055      C1477   1.480       .  S
O1056     Zr1068   2.546       .  S
O1057     Zr1071   2.408   1_556  S
C1058      C1437   1.508       .  S
O1059     Zr1068   2.542       .  S
O1059      C1061   1.309       .  A
O1060     Zr1072   2.425       .  S
O1060      C1061   1.290       .  A
C1061      C1442   1.527       .  S
O1062     Zr1065   2.411       .  S
O1062      C1064   1.275       .  A
O1063      C1064   1.288       .  A
C1064      C1537   1.485       .  S
Zr1065     O1066   2.437       .  S
Zr1065     O1067   2.436       .  S
Zr1065     O1073   2.372       .  S
Zr1065     O1074   2.368       .  S
Zr1065     O1077   2.370       .  S
Zr1065     O1075   2.367       .  S
O1066      H1086   0.990       .  S
O1066      H1091   0.990       .  S
O1067      H1087   0.990       .  S
Zr1068     O1070   2.436   1_554  S
Zr1068     O1078   2.375   1_554  S
Zr1068     O1076   2.393   1_554  S
O1069      H1085   0.990       .  S
O1070      H1084   0.990       .  S
O1070      H1094   0.990       .  S
Zr1071     O1076   2.407   1_554  S
Zr1072     O1078   2.401   1_554  S
O1073      H1081   0.966       .  S
O1076      H1080   0.966       .  S
O1077      H1082   0.966       .  S
O1095     Zr1107   2.426       .  S
O1096     Zr1133   2.483       .  S
C1097      C1433   1.504       .  S
O1098     Zr1110   2.410       .  S
O1098      C1100   1.276       .  A
O1099     Zr1134   2.463   1_556  S
O1099      C1100   1.291       .  A
C1100      C1567   1.488       .  S
O1101     Zr1110   2.394       .  S
O1101      C1103   1.279       .  A
O1102      C1103   1.291       .  A
C1103      C1667   1.475       .  S
O1104      C1106   1.282   1_556  A
O1105     Zr1134   2.504       .  S
O1105      C1106   1.301       .  A
C1106      C1446   1.510       .  S
Zr1107     O1109   2.435       .  S
Zr1107     O1137   2.371       .  S
Zr1107     O1139   2.360       .  S
O1108      H1151   0.990       .  S
O1109      H1150   0.990       .  S
O1109      H1154   0.990       .  S
Zr1110     O1111   2.437       .  S
Zr1110     O1112   2.434       .  S
Zr1110     O1114   2.366       .  S
Zr1110     O1113   2.372       .  S
Zr1110     O1138   2.369       .  S
Zr1110     O1140   2.358       .  S
O1111      H1152   0.990       .  S
O1111      H1155   0.990       .  S
O1112      H1145   0.990       .  S
O1114     Zr1134   2.394   1_556  S
O1114      H1141   0.966       .  S
O1115     Zr1127   2.418       .  S
O1115      C1117   1.282       .  A
O1116      C1117   1.292       .  A
C1117      C1557   1.486       .  S
O1118     Zr1130   2.540       .  S
O1119     Zr1133   2.419       .  S
O1119      C1120   1.289       .  A
C1120      C1426   1.510       .  S
O1121     Zr1130   2.508       .  S
O1121      C1123   1.301   1_556  A
O1122     Zr1134   2.441       .  S
O1122      C1123   1.294       .  A
O1124     Zr1127   2.407       .  S
O1124      C1126   1.273       .  A
O1125     Zr1133   2.442       .  S
O1125      C1126   1.285       .  A
C1126      C1657   1.476       .  S
Zr1127     O1128   2.440       .  S
Zr1127     O1129   2.436       .  S
Zr1127     O1135   2.373       .  S
Zr1127     O1136   2.371       .  S
Zr1127     O1139   2.379       .  S
Zr1127     O1137   2.366       .  S
O1128      H1148   0.990       .  S
O1128      H1153   0.990       .  S
O1129      H1149   0.990       .  S
Zr1130     O1132   2.435       .  S
Zr1130     O1140   2.382       .  S
Zr1130     O1138   2.388       .  S
O1131      H1147   0.990       .  S
O1132      H1146   0.990       .  S
O1132      H1156   0.990       .  S
Zr1133     O1136   2.403       .  S
Zr1133     O1139   2.400       .  S
Zr1134     O1140   2.403   1_554  S
O1135      H1143   0.966       .  S
O1138      H1142   0.966       .  S
O1139      H1144   0.966       .  S
O1157     Zr1169   2.427       .  S
O1158     Zr1195   2.482       .  S
C1159      C1421   1.506       .  S
O1160     Zr1172   2.408       .  S
O1160      C1162   1.275       .  A
O1161     Zr1196   2.455   1_556  S
O1161      C1162   1.290       .  A
C1162      C1604   1.481       .  S
O1163     Zr1172   2.395       .  S
O1163      C1165   1.279       .  A
O1164      C1165   1.293       .  A
C1165      C1627   1.481       .  S
O1166      C1168   1.288       .  A
O1167     Zr1196   2.490       .  S
O1167      C1168   1.298   1_554  A
C1168      C1418   1.512       .  S
Zr1169     O1171   2.436       .  S
Zr1169     O1199   2.369       .  S
Zr1169     O1201   2.361       .  S
O1170      H1213   0.990       .  S
O1171      H1212   0.990       .  S
O1171      H1216   0.990       .  S
Zr1172     O1173   2.436       .  S
Zr1172     O1174   2.434       .  S
Zr1172     O1176   2.369       .  S
Zr1172     O1175   2.365       .  S
Zr1172     O1200   2.366       .  S
Zr1172     O1202   2.359       .  S
O1173      H1214   0.990       .  S
O1173      H1217   0.990       .  S
O1174      H1207   0.990       .  S
O1176     Zr1196   2.397   1_556  S
O1176      H1203   0.966       .  S
O1177     Zr1189   2.408       .  S
O1177      C1179   1.279       .  A
O1178      C1179   1.291       .  A
C1179      C1594   1.482       .  S
O1180     Zr1192   2.497       .  S
O1181     Zr1195   2.416       .  S
O1181      C1182   1.288       .  A
C1182      C1413   1.505       .  S
O1183     Zr1192   2.518   1_554  S
O1183      C1185   1.303       .  A
O1184     Zr1196   2.435       .  S
O1184      C1185   1.292       .  A
O1186     Zr1189   2.406       .  S
O1186      C1188   1.274       .  A
O1187     Zr1195   2.453       .  S
O1187      C1188   1.288       .  A
C1188      C1617   1.482       .  S
Zr1189     O1190   2.438       .  S
Zr1189     O1191   2.437       .  S
Zr1189     O1197   2.371       .  S
Zr1189     O1198   2.366       .  S
Zr1189     O1201   2.372       .  S
Zr1189     O1199   2.365       .  S
O1190      H1210   0.990       .  S
O1190      H1215   0.990       .  S
O1191      H1211   0.990       .  S
Zr1192     O1194   2.435       .  S
Zr1192     O1202   2.362       .  S
Zr1192     O1200   2.390       .  S
O1193      H1209   0.990       .  S
O1194      H1208   0.990       .  S
O1194      H1218   0.990       .  S
Zr1195     O1198   2.397       .  S
Zr1195     O1201   2.392       .  S
Zr1196     O1202   2.397   1_554  S
O1197      H1205   0.966       .  S
O1200      H1204   0.966       .  S
O1201      H1206   0.966       .  S
O1219     Zr1231   2.418       .  S
O1219      C1221   1.283       .  A
O1220      C1221   1.296       .  A
C1221      C1647   1.495       .  S
O1222      C1224   1.287       .  A
O1223     Zr1258   2.457       .  S
O1223      C1224   1.291       .  A
C1224      C1409   1.482       .  S
O1225     Zr1234   2.432       .  S
O1226     Zr1257   2.475       .  S
C1227      C1422   1.518       .  S
O1228     Zr1231   2.404       .  S
O1228      C1230   1.271       .  A
O1229     Zr1258   2.458   1_556  S
O1229      C1230   1.287       .  A
C1230      C1507   1.486       .  S
Zr1231     O1232   2.435       .  S
Zr1231     O1233   2.437       .  S
Zr1231     O1237   2.371       .  S
Zr1231     O1238   2.383       .  S
Zr1231     O1261   2.366       .  S
Zr1231     O1263   2.367       .  S
O1232      H1275   0.990       .  S
O1233      H1274   0.990       .  S
O1233      H1278   0.990       .  S
Zr1234     O1236   2.436       .  S
Zr1234     O1262   2.368       .  S
Zr1234     O1264   2.370       .  S
O1235      H1276   0.990       .  S
O1235      H1279   0.990       .  S
O1236      H1269   0.990       .  S
O1238     Zr1258   2.405   1_556  S
O1238      H1265   0.966       .  S
O1239     Zr1251   2.540   1_554  S
O1240     Zr1258   2.425       .  S
O1242     Zr1254   2.405       .  S
O1242      C1244   1.271       .  A
O1243     Zr1257   2.442       .  S
O1243      C1244   1.284       .  A
C1244      C1637   1.478       .  S
O1245     Zr1254   2.413       .  S
O1245      C1247   1.282       .  A
O1246      C1247   1.293       .  A
C1247      C1497   1.489       .  S
O1248     Zr1251   2.513       .  S
C1250      C1425   1.522       .  S
Zr1251     O1253   2.434       .  S
Zr1251     O1263   2.409       .  S
Zr1251     O1261   2.368       .  S
O1252      H1272   0.990       .  S
O1252      H1277   0.990       .  S
O1253      H1273   0.990       .  S
Zr1254     O1255   2.433       .  S
Zr1254     O1256   2.436       .  S
Zr1254     O1260   2.367       .  S
Zr1254     O1259   2.370       .  S
Zr1254     O1264   2.365       .  S
Zr1254     O1262   2.378       .  S
O1255      H1271   0.990       .  S
O1256      H1270   0.990       .  S
O1256      H1280   0.989       .  S
Zr1257     O1260   2.409       .  S
Zr1257     O1262   2.405       .  S
Zr1258     O1261   2.394   1_554  S
O1259      H1267   0.966       .  S
O1262      H1266   0.966       .  S
O1263      H1268   0.966       .  S
O1281     Zr1293   2.441       .  S
C1283      C1417   1.496       .  S
O1284     Zr1296   2.407       .  S
O1284      C1286   1.275       .  A
O1285     Zr1320   2.458   1_556  S
O1285      C1286   1.290       .  A
C1286      C1527   1.483       .  S
O1287     Zr1296   2.396       .  S
O1287      C1289   1.279       .  A
O1288     Zr1319   2.459       .  S
O1288      C1289   1.294       .  A
C1289      C1584   1.482       .  S
O1290      C1292   1.284       .  A
O1291     Zr1320   2.477       .  S
O1291      C1292   1.295       .  A
C1292      C1410   1.498       .  S
Zr1293     O1295   2.437       .  S
Zr1293     O1323   2.373       .  S
Zr1293     O1325   2.362       .  S
O1294      H1337   0.990       .  S
O1295      H1336   0.990       .  S
O1295      H1340   0.990       .  S
Zr1296     O1297   2.437       .  S
Zr1296     O1298   2.435       .  S
Zr1296     O1300   2.370       .  S
Zr1296     O1299   2.371       .  S
Zr1296     O1324   2.372       .  S
Zr1296     O1326   2.360       .  S
O1297      H1338   0.990       .  S
O1297      H1341   0.990       .  S
O1298      H1331   0.990       .  S
O1299     Zr1319   2.376       .  S
O1300     Zr1320   2.392   1_556  S
O1300      H1327   0.966       .  S
O1301     Zr1313   2.406       .  S
O1301      C1303   1.281       .  A
O1302      C1303   1.292       .  A
C1303      C1517   1.480       .  S
O1304     Zr1316   2.547       .  S
O1305     Zr1319   2.395   1_554  S
C1306      C1429   1.504       .  S
O1307     Zr1316   2.570       .  S
O1307      C1309   1.313       .  A
O1308     Zr1320   2.407       .  S
O1308      C1309   1.285       .  A
C1309      C1406   1.515       .  S
O1310     Zr1313   2.409       .  S
O1310      C1312   1.275       .  A
O1311      C1312   1.290       .  A
C1312      C1577   1.487       .  S
Zr1313     O1314   2.439       .  S
Zr1313     O1315   2.435       .  S
Zr1313     O1321   2.368       .  S
Zr1313     O1322   2.361       .  S
Zr1313     O1325   2.376       .  S
Zr1313     O1323   2.371       .  S
O1314      H1334   0.990       .  S
O1314      H1339   0.990       .  S
O1315      H1335   0.989       .  S
Zr1316     O1318   2.436   1_554  S
Zr1316     O1326   2.369   1_554  S
Zr1316     O1324   2.403   1_554  S
O1317      H1333   0.990       .  S
O1318      H1332   0.989       .  S
O1318      H1342   0.990       .  S
Zr1319     O1324   2.420       .  S
Zr1320     O1326   2.400   1_554  S
O1321      H1329   0.966       .  S
O1324      H1328   0.966       .  S
O1325      H1330   0.966       .  S
O1343     Zr1355   2.416       .  S
O1343      C1345   1.282       .  A
O1344      C1345   1.294       .  A
C1345      C1687   1.490       .  S
O1346      C1348   1.287       .  A
O1347     Zr1382   2.484       .  S
O1347      C1348   1.297       .  A
C1348      C1449   1.500       .  S
O1349     Zr1358   2.430       .  S
O1350     Zr1381   2.479       .  S
C1351      C1434   1.491       .  S
O1352     Zr1355   2.404       .  S
O1352      C1354   1.270       .  A
O1353     Zr1382   2.444   1_556  S
O1353      C1354   1.284       .  A
C1354      C1467   1.482       .  S
Zr1355     O1356   2.435       .  S
Zr1355     O1357   2.438       .  S
Zr1355     O1361   2.370       .  S
Zr1355     O1362   2.385       .  S
Zr1355     O1385   2.368       .  S
Zr1355     O1387   2.368       .  S
O1356      H1399   0.990       .  S
O1357      H1398   0.990       .  S
O1357      H1402   0.990       .  S
Zr1358     O1360   2.433       .  S
Zr1358     O1386   2.368       .  S
Zr1358     O1388   2.370       .  S
O1359      H1400   0.990       .  S
O1359      H1403   0.990       .  S
O1360      H1393   0.990       .  S
O1362     Zr1382   2.413   1_556  S
O1362      H1389   0.966       .  S
O1363     Zr1375   2.537       .  S
O1363      C1365   1.308   1_556  A
O1364     Zr1382   2.446       .  S
O1364      C1365   1.293       .  A
C1365      C1405   1.524   1_554  S
O1366     Zr1378   2.404       .  S
O1366      C1368   1.271       .  A
O1367     Zr1381   2.447       .  S
O1367      C1368   1.285       .  A
C1368      C1677   1.482       .  S
O1369     Zr1378   2.402       .  S
O1369      C1371   1.280       .  A
O1370      C1371   1.293       .  A
C1371      C1454   1.484       .  S
O1372     Zr1375   2.551       .  S
C1374      C1414   1.518       .  S
Zr1375     O1377   2.433       .  S
Zr1375     O1387   2.396       .  S
Zr1375     O1385   2.371       .  S
O1376      H1396   0.990       .  S
O1376      H1401   0.990       .  S
O1377      H1397   0.990       .  S
Zr1378     O1379   2.434       .  S
Zr1378     O1380   2.436       .  S
Zr1378     O1384   2.361       .  S
Zr1378     O1383   2.369       .  S
Zr1378     O1388   2.369       .  S
Zr1378     O1386   2.376       .  S
O1379      H1395   0.990       .  S
O1380      H1394   0.990       .  S
O1380      H1404   0.990       .  S
Zr1381     O1384   2.405       .  S
Zr1381     O1386   2.400       .  S
Zr1382     O1385   2.411   1_554  S
O1383      H1391   0.966       .  S
O1386      H1390   0.966       .  S
O1387      H1392   0.966       .  S
C1405      C1406   1.363   1_556  D
C1405      H1407   1.085       .  S
C1409      C1410   1.354       .  D
C1409      H1411   1.088       .  S
C1413      C1414   1.361   1_565  D
C1413      H1415   1.087       .  S
C1417      C1418   1.360       .  D
C1418      H1420   1.085   1_556  S
C1421      C1422   1.360       .  D
C1421      H1423   1.088       .  S
C1425      C1426   1.364   1_565  D
C1426      H1428   1.087   1_545  S
C1429      C1430   1.358   1_455  D
C1430      H1432   1.085       .  S
C1433      C1434   1.353       .  D
C1433      H1435   1.086       .  S
C1437      C1438   1.361   1_655  D
C1438      H1440   1.085       .  S
C1441      C1442   1.367       .  D
C1441      H1443   1.087       .  S
C1445      C1446   1.363   1_556  D
C1445      H1447   1.087       .  S
C1449      C1450   1.353   1_554  D
C1450      H1452   1.088       .  S
C1453      C1454   1.414       .  A
C1453      C1458   1.399       .  A
C1453      H1459   1.083       .  S
C1454      C1455   1.399       .  A
C1455      C1456   1.396       .  A
C1455      H1460   1.083       .  S
C1456      C1457   1.415       .  A
C1456      H1461   1.083       .  S
C1457      C1458   1.399       .  A
C1458      H1462   1.083       .  S
C1463      C1464   1.404       .  A
C1463      C1468   1.405       .  A
C1463      H1469   1.083       .  S
C1464      C1465   1.412       .  A
C1465      C1466   1.395       .  A
C1465      H1470   1.083       .  S
C1466      C1467   1.399       .  A
C1466      H1471   1.083       .  S
C1467      C1468   1.412       .  A
C1468      H1472   1.083       .  S
C1473      C1474   1.400       .  A
C1473      C1478   1.399       .  A
C1473      H1479   1.083       .  S
C1474      C1475   1.415       .  A
C1475      C1476   1.396       .  A
C1475      H1480   1.083       .  S
C1476      C1477   1.398       .  A
C1476      H1481   1.083       .  S
C1477      C1478   1.413       .  A
C1478      H1482   1.083       .  S
C1483      C1484   1.400       .  A
C1483      C1488   1.401       .  A
C1483      H1489   1.083       .  S
C1484      C1485   1.416       .  A
C1485      C1486   1.395       .  A
C1485      H1490   1.083       .  S
C1486      C1487   1.397       .  A
C1486      H1491   1.083       .  S
C1487      C1488   1.414       .  A
C1488      H1492   1.083       .  S
C1493      C1494   1.415       .  A
C1493      C1498   1.398       .  A
C1493      H1499   1.083       .  S
C1494      C1495   1.401       .  A
C1495      C1496   1.402       .  A
C1495      H1500   1.083       .  S
C1496      C1497   1.414       .  A
C1496      H1501   1.083       .  S
C1497      C1498   1.400       .  A
C1498      H1502   1.083       .  S
C1503      C1504   1.413       .  A
C1503      C1508   1.400       .  A
C1503      H1509   1.083       .  S
C1504      C1505   1.400       .  A
C1505      C1506   1.400       .  A
C1505      H1510   1.083       .  S
C1506      C1507   1.413       .  A
C1506      H1511   1.082       .  S
C1507      C1508   1.400       .  A
C1508      H1512   1.083       .  S
C1513      C1514   1.414       .  A
C1513      C1518   1.396       .  A
C1513      H1519   1.083       .  S
C1514      C1515   1.400       .  A
C1515      C1516   1.398       .  A
C1515      H1520   1.083       .  S
C1516      C1517   1.412       .  A
C1516      H1521   1.083       .  S
C1517      C1518   1.399       .  A
C1518      H1522   1.083       .  S
C1523      C1524   1.415       .  A
C1523      C1528   1.395       .  A
C1523      H1529   1.083       .  S
C1524      C1525   1.400       .  A
C1525      C1526   1.401       .  A
C1525      H1530   1.083       .  S
C1526      C1527   1.414       .  A
C1526      H1531   1.082       .  S
C1527      C1528   1.397       .  A
C1528      H1532   1.083       .  S
C1533      C1534   1.411       .  A
C1533      C1538   1.400       .  A
C1533      H1539   1.083       .  S
C1534      C1535   1.400       .  A
C1535      C1536   1.400       .  A
C1535      H1540   1.083       .  S
C1536      C1537   1.411       .  A
C1536      H1541   1.082       .  S
C1537      C1538   1.403       .  A
C1538      H1542   1.083       .  S
C1543      C1544   1.396       .  A
C1543      C1548   1.392       .  A
C1543      H1549   1.083       .  S
C1544      C1545   1.414       .  A
C1545      C1546   1.395       .  A
C1545      H1550   1.083       .  S
C1546      C1547   1.398       .  A
C1546      H1551   1.083       .  S
C1547      C1548   1.412       .  A
C1548      H1552   1.083       .  S
C1553      C1554   1.399       .  A
C1553      C1558   1.398       .  A
C1553      H1559   1.083       .  S
C1554      C1555   1.415       .  A
C1555      C1556   1.399       .  A
C1555      H1560   1.083       .  S
C1556      C1557   1.401       .  A
C1556      H1561   1.083       .  S
C1557      C1558   1.413       .  A
C1558      H1562   1.082       .  S
C1563      C1564   1.418       .  A
C1563      C1568   1.398       .  A
C1563      H1569   1.083       .  S
C1564      C1565   1.400       .  A
C1565      C1566   1.403       .  A
C1565      H1570   1.083       .  S
C1566      C1567   1.415       .  A
C1566      H1571   1.083       .  S
C1567      C1568   1.399       .  A
C1568      H1572   1.083       .  S
C1573      C1574   1.413       .  A
C1573      C1578   1.399       .  A
C1573      H1579   1.083       .  S
C1574      C1575   1.401       .  A
C1575      C1576   1.401       .  A
C1575      H1580   1.083       .  S
C1576      C1577   1.413       .  A
C1576      H1581   1.083       .  S
C1577      C1578   1.401       .  A
C1578      H1582   1.083       .  S
C1583      C1584   1.399       .  A
C1583      C1588   1.398       .  A
C1583      H1589   1.083       .  S
C1584      C1585   1.414       .  A
C1585      C1586   1.396       .  A
C1585      H1590   1.083       .  S
C1586      C1587   1.397       .  A
C1586      H1591   1.083       .  S
C1587      C1588   1.416       .  A
C1588      H1592   1.083       .  S
C1593      C1594   1.399       .  A
C1593      C1598   1.396       .  A
C1593      H1599   1.083       .  S
C1594      C1595   1.414       .  A
C1595      C1596   1.397       .  A
C1595      H1600   1.082       .  S
C1596      C1597   1.399       .  A
C1596      H1601   1.083       .  S
C1597      C1598   1.414       .  A
C1598      H1602   1.083       .  S
C1603      C1604   1.397       .  A
C1603      C1608   1.395       .  A
C1603      H1609   1.083       .  S
C1604      C1605   1.414       .  A
C1605      C1606   1.400       .  A
C1605      H1610   1.082       .  S
C1606      C1607   1.399       .  A
C1606      H1611   1.083       .  S
C1607      C1608   1.416       .  A
C1608      H1612   1.083       .  S
C1613      C1614   1.400       .  A
C1613      C1618   1.401       .  A
C1613      H1619   1.083       .  S
C1614      C1615   1.413       .  A
C1615      C1616   1.394       .  A
C1615      H1620   1.083       .  S
C1616      C1617   1.398       .  A
C1616      H1621   1.083       .  S
C1617      C1618   1.414       .  A
C1618      H1622   1.081       .  S
C1623      C1624   1.397       .  A
C1623      C1628   1.395       .  A
C1623      H1629   1.083       .  S
C1624      C1625   1.415       .  A
C1625      C1626   1.396       .  A
C1625      H1630   1.083       .  S
C1626      C1627   1.398       .  A
C1626      H1631   1.083       .  S
C1627      C1628   1.415       .  A
C1628      H1632   1.083       .  S
C1633      C1634   1.401       .  A
C1633      C1638   1.401       .  A
C1633      H1639   1.083       .  S
C1634      C1635   1.411       .  A
C1635      C1636   1.394       .  A
C1635      H1640   1.083       .  S
C1636      C1637   1.399       .  A
C1636      H1641   1.083       .  S
C1637      C1638   1.411       .  A
C1638      H1642   1.083       .  S
C1643      C1644   1.415       .  A
C1643      C1648   1.402       .  A
C1643      H1649   1.083       .  S
C1644      C1645   1.402       .  A
C1645      C1646   1.403       .  A
C1645      H1650   1.083       .  S
C1646      C1647   1.415       .  A
C1646      H1651   1.083       .  S
C1647      C1648   1.402       .  A
C1648      H1652   1.083       .  S
C1653      C1654   1.409       .  A
C1653      C1658   1.394       .  A
C1653      H1659   1.083       .  S
C1654      C1655   1.400       .  A
C1655      C1656   1.400       .  A
C1655      H1660   1.083       .  S
C1656      C1657   1.411       .  A
C1656      H1661   1.083       .  S
C1657      C1658   1.400       .  A
C1658      H1662   1.083       .  S
C1663      C1664   1.399       .  A
C1663      C1668   1.396       .  A
C1663      H1669   1.083       .  S
C1664      C1665   1.414       .  A
C1665      C1666   1.393       .  A
C1665      H1670   1.083       .  S
C1666      C1667   1.397       .  A
C1666      H1671   1.083       .  S
C1667      C1668   1.412       .  A
C1668      H1672   1.083       .  S
C1673      C1674   1.402       .  A
C1673      C1678   1.403       .  A
C1673      H1679   1.083       .  S
C1674      C1675   1.414       .  A
C1675      C1676   1.395       .  A
C1675      H1680   1.083       .  S
C1676      C1677   1.398       .  A
C1676      H1681   1.083       .  S
C1677      C1678   1.413       .  A
C1678      H1682   1.082       .  S
C1683      C1684   1.401       .  A
C1683      C1688   1.401       .  A
C1683      H1689   1.083       .  S
C1684      C1685   1.415       .  A
C1685      C1686   1.398       .  A
C1685      H1690   1.083       .  S
C1686      C1687   1.401       .  A
C1686      H1691   1.083       .  S
C1687      C1688   1.414       .  A
C1688      H1692   1.083       .  S
