geometry optimzed in LAMMPS
_audit_creation_date              2020-11-30 
_audit_creation_method            'lammps2cif' 
_symmetry_space_group_name_H-M    'P1' 
_symmetry_Int_Tables_number       1 
_symmetry_cell_setting            triclinic 
loop_ 
_symmetry_equiv_pos_as_xyz 
  x,y,z 
_cell_length_a                    29.89614468 
_cell_length_b                    29.771556024804475 
_cell_length_c                    30.04044739944518 
_cell_angle_alpha                 90.03533154714917 
_cell_angle_beta                  89.78701006530926 
_cell_angle_gamma                 89.87161969430262 
loop_ 
_atom_site_label 
_atom_site_type_symbol 
_atom_site_fract_x 
_atom_site_fract_y 
_atom_site_fract_z 
_atom_site_charge 
O1          O  0.09084187  0.02175914  0.50509382    -0.88000
C2          C  0.00229516  0.91681889  0.50810814     0.88000
Mg3        Mg  0.08446504  0.07915789  0.54872514     1.58100
O4          O  0.99292924  0.98638057  0.41389175    -0.87800
O5          O  0.09537222  0.00361785  0.43445172    -0.75100
C6          C  0.87394752  0.14274497  0.52598759     0.93000
O7          O  0.03609125  0.98235402  0.58881960    -0.74900
O8          O  0.90390200  0.14090388  0.55588062    -0.82400
Mg9        Mg  0.08673932  0.95713704  0.53672381     1.58000
C10         C  0.86782610  0.03154578  0.37556914     0.93000
O11         O  0.14087451  0.92589436  0.49146665    -0.80700
H12         H  0.02102478  0.01571113  0.36093300    -0.06000
C13         C  0.90630442  0.01295630  0.51621731     0.87900
O14         O  0.05173039  0.12054462  0.49321371    -0.75200
O15         O  0.03329008  0.93918973  0.49238677    -0.88000
O16         O  0.88897116  0.99479642  0.38175236    -0.80800
C17         C  0.96857752  0.87048616  0.38938870     0.93100
C18         C  0.13996480  0.89831941  0.45911099     0.92900
Mg19       Mg  0.92976657  0.08420238  0.44758431     1.58000
O20         O  0.87645095  0.11964518  0.49029335    -0.80700
O21         O  0.98103338  0.05699765  0.39726981    -0.74900
O22         O  0.00769418  0.88017666  0.40320577    -0.80800
O23         O  0.14228107  0.97507944  0.58431436    -0.82500
O24         O  0.00442062  0.15665987  0.58748284    -0.80800
C25         C  0.99881451  0.01907099  0.38923358     0.87400
O26         O  0.98121270  0.10163101  0.49408055    -0.87900
O27         O  0.92345933  0.01940371  0.47931142    -0.88000
O28         O  0.91803501  0.03521407  0.55026094    -0.75100
Mg29       Mg  0.04886483  0.94274946  0.42281815     1.58000
O30         O  0.93582960  0.89757577  0.39419871    -0.82500
H31         H  0.13106028  0.05415820  0.46258610    -0.06200
O32         O  0.02119650  0.05210046  0.57123911    -0.87700
H33         H  0.99524673  0.02275327  0.62529126    -0.06000
H34         H  0.00501506  0.14887538  0.45314776    -0.06200
C35         C  0.01690887  0.01967050  0.59654003     0.87300
C36         C  0.10697451  0.02755450  0.46755770     0.87900
C37         C  0.01194061  0.12501261  0.47938008     0.88000
H38         H  0.88163004  0.98670451  0.51989077    -0.06200
O39         O  0.96252195  0.92104997  0.49403792    -0.75200
Mg40       Mg  0.96418090  0.09518563  0.56383899     1.58000
H41         H  0.00900095  0.89392244  0.53521060    -0.06200
C42         C  0.14825707  0.00912934  0.60905913     0.93000
O43         O  0.07688244  0.14019503  0.59397381    -0.82400
C44         C  0.04351629  0.16568801  0.60180811     0.93000
O45         O  0.10717920  0.89610826  0.43246650    -0.82400
Mg46       Mg  0.92958785  0.96094963  0.43737638     1.58200
O47         O  0.12549300  0.04512105  0.60455030    -0.80800
O48         O  0.87534039  0.06658863  0.39851843    -0.82500
O49         O  0.04382943  0.43186771  0.97171803    -0.88000
C50         C  0.03030414  0.56635952  0.94863283     0.88000
Mg51       Mg  0.98778081  0.38847916  0.98177186     1.58100
O52         O  0.06892828  0.53907742  0.05545902    -0.87800
O53         O  0.10547834  0.45230670  0.00517114    -0.75100
C54         C  0.86297267  0.49067639  0.13471922     0.93000
O55         O  0.96397728  0.48335447  0.92178222    -0.74900
O56         O  0.85978591  0.46400334  0.10174907    -0.82400
Mg57       Mg  0.04021265  0.47514096  0.91465372     1.58000
C58         C  0.01118934  0.60522176  0.16566465     0.93000
O59         O  0.11470259  0.46757260  0.89892080    -0.80700
H60         H  0.11415726  0.51151447  0.09605306    -0.06000
C61         C  0.93397145  0.56280282  0.04656150     0.87900
O62         O  0.99731800  0.39247846  0.05798223    -0.75200
O63         O  0.05128142  0.53167022  0.95737848    -0.88000
O64         O  0.03342034  0.61196544  0.12998722    -0.80800
C65         C  0.11878271  0.63986708  0.01499907     0.93100
C66         C  0.15098914  0.48882181  0.90510349     0.92900
Mg67       Mg  0.97328441  0.51129133  0.12399503     1.58000
O68         O  0.89789424  0.51423914  0.14147148    -0.80700
O69         O  0.04988616  0.50505010  0.11717103    -0.74900
O70         O  0.12526983  0.60452402  0.99189056    -0.80800
O71         O  0.02849420  0.41653633  0.86815096    -0.82500
O72         O  0.89007469  0.37808802  0.04515610    -0.80800
C73         C  0.07928905  0.51871702  0.08973357     0.87400
O74         O  0.96337153  0.45355591  0.08095489    -0.87900
O75         O  0.96922615  0.55399369  0.06611127    -0.88000
O76         O  0.90739938  0.53210524  0.03384792    -0.75100
Mg77       Mg  0.11058593  0.52893890  0.99754101     1.58000
O78         O  0.08671674  0.64314180  0.04292097    -0.82500
H79         H  0.08558347  0.38743529  0.99935797    -0.06200
O80         O  0.94484601  0.44664946  0.98205570    -0.87700
H81         H  0.89980410  0.47681918  0.94308885    -0.06000
H82         H  0.99379577  0.41135010  0.12289987    -0.06200
C83         C  0.93458854  0.46872565  0.94875622     0.87300
C84         C  0.07854685  0.42226920  0.99184539     0.87900
C85         C  0.98479319  0.41892278  0.08890353     0.88000
H86         H  0.92596037  0.59747494  0.03928056    -0.06200
O87         O  0.01700313  0.59299369  0.97898947    -0.75200
Mg88       Mg  0.90374316  0.45493260  0.04046670     1.58000
H89         H  0.02200262  0.57357828  0.91438229    -0.06200
C90         C  0.00136851  0.38381680  0.87048443     0.93000
O91         O  0.92906777  0.34223271  0.99265776    -0.82400
C92         C  0.89756463  0.34345103  0.02115360     0.93000
O93         O  0.15532487  0.51746866  0.93632552    -0.82400
Mg94       Mg  0.02625366  0.59742954  0.05482856     1.58200
O95         O  0.98014016  0.37468661  0.90621782    -0.80800
O96         O  0.98358330  0.57281432  0.16936760    -0.82500
O97         O  0.50437430  0.41364596  0.49744494    -0.88000
C98         C  0.48504421  0.50597205  0.59658180     0.88000
Mg99       Mg  0.55002251  0.42632173  0.44273264     1.58100
O100        O  0.39569188  0.49912622  0.52129857    -0.87800
O101        O  0.43293857  0.40033863  0.50798868    -0.75100
C102        C  0.49541230  0.62923161  0.36901285     0.93000
O103        O  0.57395838  0.48493731  0.53769843    -0.74900
O104        O  0.52841189  0.60224593  0.37084185    -0.82400
Mg105      Mg  0.53016806  0.42695549  0.56357303     1.58000
C106        C  0.34006397  0.61653933  0.47264597     0.94600
O107        O  0.49306647  0.36848550  0.59902446    -0.80700
H108        H  0.34746881  0.46368142  0.49173199    -0.06000
C109        C  0.48435909  0.60051903  0.49739729     0.87900
O110        O  0.49143780  0.44839796  0.39772604    -0.75200
O111        O  0.47558421  0.47179361  0.57527893    -0.88000
O112        O  0.34644136  0.59587632  0.50919981    -0.80800
C113        C  0.36101003  0.52195631  0.63381245     0.93100
C114        C  0.45540857  0.36162519  0.61805555     0.92900
Mg115      Mg  0.42367423  0.56491183  0.42561928     1.58000
O116        O  0.46056436  0.62405725  0.39290851    -0.80700
O117        O  0.37922608  0.50763626  0.45092895    -0.74900
O118        O  0.37964097  0.48426837  0.62548658    -0.80800
O119        O  0.58873309  0.38059955  0.55170453    -0.82500
O120        O  0.57313689  0.50649835  0.36142920    -0.80800
C121        C  0.37272308  0.48944142  0.48857766     0.87400
O122        O  0.47803812  0.51910312  0.41275411    -0.87900
O123        O  0.45093108  0.57723635  0.49044777    -0.88000
O124        O  0.52102084  0.59359488  0.47696237    -0.75100
Mg125      Mg  0.40921725  0.44525363  0.56584551     1.58000
O126        O  0.36258523  0.55457593  0.60650588    -0.82500
H127        H  0.47121640  0.36722960  0.46265181    -0.06200
O128        O  0.55877297  0.49380257  0.46706118    -0.87700
H129        H  0.60530673  0.53029459  0.49803131    -0.06000
H130        H  0.44412456  0.48554192  0.36615937    -0.06200
C131        C  0.58063914  0.50388782  0.50039904     0.87300
C132        C  0.47000822  0.39237996  0.48861630     0.87900
C133        C  0.47019034  0.48479716  0.39097639     0.88000
H134        H  0.48268036  0.62670751  0.52231718    -0.06200
O135        O  0.46591710  0.54331020  0.58922185    -0.75200
Mg136      Mg  0.54390287  0.54662684  0.42028296     1.58000
H137        H  0.51144706  0.50438631  0.62101628    -0.06200
C138        C  0.61595566  0.37653568  0.51934240     0.93000
O139        O  0.59806607  0.43984779  0.38447827    -0.82400
C140        C  0.59692193  0.47140527  0.35582825     0.93000
O141        O  0.42200855  0.38728238  0.61214093    -0.82400
Mg142      Mg  0.40705743  0.56595419  0.54605668     1.58200
O143        O  0.60950731  0.39574771  0.48187546    -0.80800
O144        O  0.36661078  0.61281615  0.43963380    -0.82500
O145        O  0.56943128  0.95436746  0.03255139    -0.88000
C146        C  0.44207319  0.97510409  0.07737623     0.88000
Mg147      Mg  0.61407581  0.00857834  0.01723766     1.58100
O148        O  0.44875965  0.94012142  0.96557485    -0.87800
O149        O  0.53950389  0.89556982  0.00052304    -0.75100
C150        C  0.49758477  0.14748233  0.89049003     0.93000
O151        O  0.53165637  0.03496721  0.09360885    -0.74900
O152        O  0.52795080  0.14815539  0.91998410    -0.82400
Mg153      Mg  0.53580018  0.95802599  0.09623442     1.58000
C154        C  0.37289250  0.00916887  0.86977061     0.93000
O155        O  0.54025638  0.88181236  0.10725332    -0.80700
H156        H  0.46779126  0.89522712  0.91973263    -0.06000
C157        C  0.43693119  0.07615070  0.98444061     0.87900
O158        O  0.59811721  0.00335430  0.94266492    -0.75200
O159        O  0.47285525  0.95179377  0.06239106    -0.88000
O160        O  0.36752812  0.98795848  0.90628027    -0.80800
C161        C  0.35119807  0.89743145  0.01940645     0.93100
C162        C  0.51557418  0.84729711  0.10269984     0.92900
Mg163      Mg  0.47428173  0.03723253  0.89808912     1.58000
O164        O  0.47298202  0.11316038  0.88412281    -0.80700
O165        O  0.47648513  0.96011495  0.90104271    -0.74900
O166        O  0.38893131  0.88370888  0.03413898    -0.80800
O167        O  0.60128487  0.96642386  0.13446136    -0.82500
O168        O  0.61968172  0.11040395  0.95868878    -0.80800
C169        C  0.46389591  0.93025239  0.92849864     0.87400
O170        O  0.53705183  0.04246453  0.93226545    -0.87900
O171        O  0.44092414  0.04165884  0.96188486    -0.88000
O172        O  0.47043306  0.10011215  0.99459376    -0.75100
Mg173      Mg  0.46462528  0.89460623  0.01920462     1.58000
O174        O  0.34750242  0.93270097  0.99582364    -0.82500
H175        H  0.60562059  0.91063205  0.99686664    -0.06200
O176        O  0.55985754  0.05480455  0.02916430    -0.87700
H177        H  0.53981356  0.09980256  0.07450630    -0.06000
H178        H  0.56978959  0.01274640  0.88207639    -0.06200
C179        C  0.54424476  0.06475607  0.06605557     0.87300
C180        C  0.57310816  0.91983106  0.00993921     0.87900
C181        C  0.56835529  0.01977503  0.91737158     0.88000
H182        H  0.40425902  0.08534589  0.99708220    -0.06200
O183        O  0.41293612  0.99271374  0.05217466    -0.75200
Mg184      Mg  0.54483715  0.09991856  0.97562525     1.58000
H185        H  0.44080754  0.98194343  0.11270999    -0.06200
C186        C  0.63470199  0.99150165  0.12596566     0.93000
O187        O  0.66127608  0.06609536  0.00171058    -0.82400
C188        C  0.65706875  0.09987848  0.97612824     0.93000
O189        O  0.48241712  0.84645472  0.07606735    -0.82400
Mg190      Mg  0.39564779  0.98832630  0.97794760     1.58200
O191        O  0.63955750  0.01094108  0.08861403    -0.80800
O192        O  0.40803807  0.03183318  0.86162228    -0.82500
C193        C  0.51389035  0.69588841  0.26082188     0.19000
C194        C  0.54898830  0.70266744  0.23038286    -0.19100
C195        C  0.54273252  0.72930004  0.19249111    -0.11400
C196        C  0.50095273  0.74936920  0.18406865     0.21200
C197        C  0.46544859  0.74124117  0.21356384    -0.20700
C198        C  0.47177340  0.71499844  0.25160040    -0.11600
C199        C  0.49357834  0.78030195  0.14596547    -0.15700
C200        C  0.52555428  0.80848338  0.13155221    -0.29600
C201        C  0.52118551  0.66574665  0.29967597    -0.03800
C202        C  0.49504896  0.66618671  0.33628438    -0.40400
H203        H  0.58139791  0.68741043  0.23602117     0.12400
H204        H  0.57050909  0.73389735  0.16974368     0.12000
H205        H  0.43283194  0.75591933  0.20756090     0.11500
H206        H  0.44324699  0.70907398  0.27300006     0.11700
H207        H  0.45961479  0.78451109  0.13383937     0.14400
H208        H  0.55849424  0.80740208  0.14662103     0.13200
H209        H  0.54762318  0.64075770  0.29694633     0.10900
H210        H  0.46907970  0.69143352  0.34003060     0.12900
C211        C  0.47253762  0.21934165  0.78658438     0.19000
C212        C  0.44215940  0.21663214  0.75109256    -0.19100
C213        C  0.44528293  0.24594005  0.71478776    -0.11400
C214        C  0.47919857  0.27856076  0.71310307     0.21200
C215        C  0.50956565  0.28129113  0.74847229    -0.20700
C216        C  0.50631144  0.25222212  0.78486372    -0.11600
C217        C  0.48459546  0.30978177  0.67485629    -0.15700
C218        C  0.45019196  0.32423217  0.64991158    -0.29600
C219        C  0.47031984  0.18471603  0.82232694    -0.03800
C220        C  0.49306234  0.18688045  0.86095012    -0.40400
H221        H  0.41628200  0.19119822  0.75109324     0.12400
H222        H  0.42188946  0.24215711  0.68766541     0.12000
H223        H  0.53613908  0.30598268  0.74786084     0.11500
H224        H  0.53130192  0.25495355  0.81058354     0.11700
H225        H  0.51735394  0.32480259  0.66980044     0.14400
H226        H  0.41645426  0.31289795  0.65721639     0.13200
H227        H  0.45084224  0.15476149  0.81527055     0.10900
H228        H  0.51220224  0.21650273  0.86950117     0.12900
C229        C  0.76509996  0.16740121  0.99491998     0.19000
C230        C  0.78398385  0.18260674  0.03490370    -0.19100
C231        C  0.81593107  0.21687077  0.03486012    -0.11400
C232        C  0.83020139  0.23624972  0.99460982     0.21200
C233        C  0.81262423  0.21983343  0.95444327    -0.20700
C234        C  0.78007106  0.18603246  0.95453666    -0.11600
C235        C  0.86363513  0.27316108  0.99332553    -0.15700
C236        C  0.86756499  0.30423594  0.02579708    -0.29600
C237        C  0.73002434  0.13211588  0.99690350    -0.03800
C238        C  0.69581607  0.12964433  0.96792942    -0.40400
H239        H  0.77340084  0.16842304  0.06640772     0.12400
H240        H  0.82971988  0.22775062  0.06632116     0.12000
H241        H  0.82356220  0.23375530  0.92294279     0.11500
H242        H  0.76704526  0.17427718  0.92304881     0.11700
H243        H  0.88326088  0.27690972  0.96302023     0.14400
H244        H  0.84557754  0.30314184  0.05461746     0.13200
H245        H  0.72972795  0.11041563  0.02599598     0.10900
H246        H  0.69344842  0.15365030  0.94083711     0.12900
C247        C  0.19528240  0.74097230  0.03896417     0.19000
C248        C  0.19036595  0.78666138  0.04946400    -0.19100
C249        C  0.22761044  0.81525752  0.04970464    -0.11400
C250        C  0.27069095  0.79837049  0.04026915     0.21200
C251        C  0.27568133  0.75231756  0.03159363    -0.20700
C252        C  0.23847775  0.72397442  0.03068371    -0.11600
C253        C  0.31121623  0.82738509  0.03906070    -0.15700
C254        C  0.31008070  0.87119723  0.02806109    -0.29600
C255        C  0.15558267  0.71087634  0.03894456    -0.03800
C256        C  0.15225935  0.67609711  0.01048620    -0.40400
H257        H  0.15758874  0.80032563  0.05695053     0.12400
H258        H  0.22260529  0.85031638  0.05785056     0.12000
H259        H  0.30848053  0.73827911  0.02486678     0.11500
H260        H  0.24369273  0.68857904  0.02415995     0.11700
H261        H  0.34353179  0.81111069  0.04313945     0.14400
H262        H  0.27835998  0.88714457  0.02034508     0.13200
H263        H  0.12937968  0.71679933  0.06342911     0.10900
H264        H  0.17785366  0.67155097  0.98508815     0.12900
C265        C  0.25116935  0.50548698  0.82589697     0.19000
C266        C  0.26842266  0.54445395  0.80602560    -0.19100
C267        C  0.29482603  0.54177531  0.76752985    -0.11400
C268        C  0.30474782  0.49984266  0.74810913     0.21200
C269        C  0.28921198  0.46076856  0.76921399    -0.20700
C270        C  0.26268296  0.46345847  0.80759977    -0.11600
C271        C  0.33144121  0.49524676  0.70635953    -0.15700
C272        C  0.33622971  0.52832832  0.67609174    -0.29600
C273        C  0.22027321  0.51008697  0.86466636    -0.03800
C274        C  0.18759266  0.48025084  0.87304998    -0.40400
H275        H  0.26061676  0.57718842  0.81977203     0.12400
H276        H  0.30747542  0.57266226  0.75339517     0.12000
H277        H  0.29703870  0.42799161  0.75553601     0.11500
H278        H  0.25134685  0.43254712  0.82279955     0.11700
H279        H  0.34596035  0.46248078  0.69927062     0.14400
H280        H  0.32037421  0.56071983  0.68136423     0.13200
H281        H  0.22113990  0.54116611  0.88363151     0.10900
H282        H  0.18400148  0.45096015  0.85185429     0.12900
C283        C  0.69657330  0.45411179  0.27593087     0.19000
C284        C  0.74270165  0.45705396  0.28387578    -0.19100
C285        C  0.77289972  0.46234769  0.24856689    -0.11400
C286        C  0.75762787  0.46399411  0.20435128     0.21200
C287        C  0.71165636  0.45945611  0.19623274    -0.20700
C288        C  0.68130369  0.45511046  0.23166240    -0.11600
C289        C  0.78948474  0.46761723  0.16637012    -0.15700
C290        C  0.82689379  0.49265247  0.16856189    -0.29600
C291        C  0.66541106  0.44987980  0.31447143    -0.03800
C292        C  0.62458120  0.46897577  0.31499316    -0.40400
H293        H  0.75537249  0.45584098  0.31759745     0.12400
H294        H  0.80828523  0.46422179  0.25585484     0.12000
H295        H  0.69919160  0.45969888  0.16241836     0.11500
H296        H  0.64604369  0.45180525  0.22433766     0.11700
H297        H  0.78219236  0.44879826  0.13625688     0.14400
H298        H  0.83281450  0.51319213  0.19785973     0.13200
H299        H  0.67808208  0.43470367  0.34484184     0.10900
H300        H  0.61351095  0.48832173  0.28642047     0.12900
C301        C  0.77849938  0.22537754  0.49778531     0.19000
C302        C  0.76489403  0.24399988  0.45709906    -0.19100
C303        C  0.73410055  0.27934488  0.45588561    -0.11400
C304        C  0.71569401  0.29683464  0.49532275     0.21200
C305        C  0.72980729  0.27858376  0.53628729    -0.20700
C306        C  0.76063823  0.24312916  0.53745975    -0.11600
C307        C  0.68089217  0.33268319  0.49163273    -0.15700
C308        C  0.65504775  0.34679498  0.52573703    -0.29600
C309        C  0.81121219  0.18763204  0.49687225    -0.03800
C310        C  0.83666187  0.17499647  0.53168313    -0.40400
H311        H  0.77818641  0.23114949  0.42597445     0.12400
H312        H  0.72411027  0.29261075  0.42385472     0.12000
H313        H  0.71733188  0.29108930  0.56768374     0.11500
H314        H  0.76966764  0.22943490  0.56951757     0.11700
H315        H  0.67412885  0.34581797  0.45858923     0.14400
H316        H  0.65960397  0.33342336  0.55887739     0.13200
H317        H  0.81700489  0.17167668  0.46478964     0.10900
H318        H  0.83369970  0.19193455  0.56352027     0.12900
C319        C  0.20433357  0.78879755  0.44137711     0.19000
C320        C  0.19157952  0.74447043  0.45077163    -0.19100
C321        C  0.22354874  0.71019729  0.45233911    -0.11400
C322        C  0.26880483  0.71968607  0.44376088     0.21200
C323        C  0.28134458  0.76390206  0.43351894    -0.20700
C324        C  0.24949681  0.79826272  0.43264150    -0.11600
C325        C  0.30365834  0.68426983  0.44385634    -0.15700
C326        C  0.30166377  0.64744215  0.46967691    -0.29600
C327        C  0.16968074  0.82424771  0.44019931    -0.03800
C328        C  0.17724062  0.86645673  0.45414418    -0.40400
H329        H  0.15683333  0.73644271  0.45725437     0.12400
H330        H  0.21261794  0.67627396  0.45930236     0.12000
H331        H  0.31596965  0.77190690  0.42639832     0.11500
H332        H  0.26011293  0.83199806  0.42433772     0.11700
H333        H  0.33383645  0.69052023  0.42452308     0.14400
H334        H  0.27385854  0.64260231  0.49251846     0.13200
H335        H  0.13581218  0.81426172  0.43163547     0.10900
H336        H  0.20968981  0.87576391  0.46735507     0.12900
C337        C  0.29971134  0.03117401  0.76639796     0.19000
C338        C  0.30703920  0.02596574  0.72054157    -0.19100
C339        C  0.27117609  0.02743629  0.69077765    -0.11400
C340        C  0.22746071  0.03550852  0.70626632     0.21200
C341        C  0.22034306  0.04274623  0.75187858    -0.20700
C342        C  0.25605237  0.03997399  0.78182861    -0.11600
C343        C  0.18923600  0.03747565  0.67503564    -0.15700
C344        C  0.18422125  0.00684619  0.64255201    -0.29600
C345        C  0.33831182  0.02892376  0.79728501    -0.03800
C346        C  0.33565374  0.00897162  0.83740347    -0.40400
H347        H  0.34047273  0.01998274  0.70785134     0.12400
H348        H  0.27766673  0.02287344  0.65555368     0.12000
H349        H  0.18702422  0.04972713  0.76437577     0.11500
H350        H  0.24965259  0.04542204  0.81693613     0.11700
H351        H  0.16410427  0.06348005  0.67984735     0.14400
H352        H  0.20780188  0.97908639  0.64010249     0.13200
H353        H  0.37002812  0.04271315  0.78604748     0.10900
H354        H  0.30460392  0.99291510  0.84744228     0.12900
C355        C  0.78234560  0.99696681  0.28697248     0.19000
C356        C  0.78580955  0.97613879  0.24530591    -0.19100
C357        C  0.74861446  0.97334652  0.21751788    -0.11400
C358        C  0.70692626  0.99037360  0.23138638     0.21200
C359        C  0.70301535  0.00994228  0.27370108    -0.20700
C360        C  0.74060495  0.01376181  0.30113586    -0.11600
C361        C  0.66746019  0.98727989  0.20186892    -0.15700
C362        C  0.67114580  0.99689322  0.15837852    -0.29600
C363        C  0.82203035  0.99800988  0.31617197    -0.03800
C364        C  0.83144763  0.03312323  0.34257589    -0.40400
H365        H  0.81745009  0.96230257  0.23414179     0.12400
H366        H  0.75225373  0.95717374  0.18538376     0.12000
H367        H  0.67108533  0.02278112  0.28519015     0.11500
H368        H  0.73681703  0.02885090  0.33376061     0.11700
H369        H  0.63521611  0.97829068  0.21604567     0.14400
H370        H  0.70283022  0.00942511  0.14559949     0.13200
H371        H  0.84434017  0.96913077  0.31545207     0.10900
H372        H  0.81060015  0.06305913  0.34143197     0.12900
C373        C  0.99186923  0.75882778  0.32568151     0.19000
C374        C  0.03129797  0.74118497  0.30689851    -0.19100
C375        C  0.03009624  0.70439400  0.27785771    -0.11400
C376        C  0.98919124  0.68398979  0.26671544     0.21200
C377        C  0.94987007  0.70045871  0.28688245    -0.20700
C378        C  0.95106246  0.73747773  0.31591139    -0.11600
C379        C  0.98617773  0.64599796  0.23408293    -0.15700
C380        C  0.01743434  0.63786468  0.20248186    -0.29600
C381        C  0.99546302  0.79942779  0.35486691    -0.03800
C382        C  0.96125627  0.82733224  0.36541780    -0.40400
H383        H  0.06333167  0.75635597  0.31425783     0.12400
H384        H  0.06143496  0.69204044  0.26455801     0.12000
H385        H  0.91793237  0.68509497  0.27955555     0.11500
H386        H  0.92001109  0.74900769  0.33055831     0.11700
H387        H  0.95552542  0.62645771  0.23366479     0.14400
H388        H  0.04656342  0.65935245  0.20005037     0.13200
H389        H  0.02888118  0.80845848  0.36574448     0.10900
H390        H  0.92773162  0.82035049  0.35373228     0.12900
C391        C  0.02078000  0.32237717  0.75835408     0.19000
C392        C  0.05966474  0.31242061  0.73379894    -0.19100
C393        C  0.05853310  0.28210716  0.69810068    -0.11400
C394        C  0.01817225  0.26120024  0.68593649     0.21200
C395        C  0.97906989  0.27233332  0.70968862    -0.20700
C396        C  0.98026613  0.30244023  0.74544937    -0.11600
C397        C  0.01488255  0.22709535  0.64961827    -0.15700
C398        C  0.04997448  0.20535836  0.63097608    -0.29600
C399        C  0.02373072  0.35419657  0.79655316    -0.03800
C400        C  0.99491161  0.35442468  0.83124331    -0.40400
H401        H  0.09123357  0.32777458  0.74262579     0.12400
H402        H  0.08931326  0.27550289  0.68027106     0.12000
H403        H  0.94738764  0.25723597  0.70086934     0.11500
H404        H  0.94928401  0.31028294  0.76250500     0.11700
H405        H  0.98135602  0.21674436  0.64030817     0.14400
H406        H  0.08390395  0.21320074  0.64079372     0.13200
H407        H  0.05248378  0.37647783  0.79745832     0.10900
H408        H  0.96779651  0.33028239  0.83267868     0.12900
loop_ 
_geom_bond_atom_site_label_1 
_geom_bond_atom_site_label_2 
_geom_bond_distance 
_geom_bond_site_symmetry_2 
_ccdc_geom_bond_type 
O1           Mg3   2.161       .  S
O1           Mg9   2.150   1_545  S
O1           C36   1.237       .  S
C2           O15   1.235       .  S
C2           O39   1.269   1_455  A
C2           H41   1.081       .  S
Mg3          O32   2.164       .  S
Mg3          O47   2.314       .  S
Mg3          O43   2.279       .  S
Mg3          O14   2.295       .  S
O4          Mg46   2.157       .  S
O4          Mg29   2.133   1_655  S
O4           C25   1.236   1_565  S
O5           C36   1.273       .  A
O5          Mg29   2.314   1_545  S
C6            O8   1.272       .  A
C6           O20   1.275       .  A
C6          C310   1.479       .  S
O7           C35   1.270   1_565  A
O7           Mg9   2.298       .  S
O8          Mg40   2.269       .  S
Mg9          O15   2.152       .  S
Mg9          O23   2.260       .  S
Mg9          O11   2.304       .  S
C10          O48   1.271       .  A
C10          O16   1.276   1_545  A
C10         C364   1.475       .  S
O11          C18   1.272       .  A
H12          C25   1.081   1_455  S
C13          O27   1.235       .  S
C13          O28   1.269       .  A
C13          H38   1.081   1_545  S
O14          C37   1.268       .  A
O15         Mg29   2.142       .  S
O16         Mg46   2.301       .  S
C17          O30   1.275       .  A
C17          O22   1.276   1_655  A
C17         C382   1.489       .  S
C18          O45   1.270       .  A
C18         C328   1.469       .  S
Mg19         O26   2.146       .  S
Mg19         O27   2.161       .  S
Mg19         O20   2.297       .  S
Mg19         O21   2.295       .  S
Mg19         O48   2.262       .  S
O21          C25   1.270       .  A
O22         Mg29   2.312       .  S
O23          C42   1.270   1_565  A
O24          C44   1.276       .  A
O24         Mg40   2.306   1_455  S
O26         Mg40   2.163       .  S
O26          C37   1.234   1_655  S
O27         Mg46   2.155   1_545  S
O28         Mg40   2.296       .  S
Mg29         O45   2.246       .  S
O30         Mg46   2.296       .  S
H31          C36   1.082       .  S
O32         Mg40   2.143   1_455  S
O32          C35   1.236       .  S
H33          C35   1.081   1_655  S
H34          C37   1.082       .  S
O39         Mg46   2.299       .  S
C42          O47   1.276       .  A
C42         C344   1.477       .  S
O43          C44   1.273       .  A
C44         C398   1.484       .  S
O49         Mg51   2.139   1_455  S
O49         Mg57   2.148       .  S
O49          C84   1.236       .  S
C50          O63   1.236       .  S
C50          O87   1.270       .  A
C50          H89   1.081       .  S
Mg51         O80   2.153       .  S
Mg51         O95   2.318       .  S
Mg51         O91   2.256       .  S
Mg51         O62   2.311   1_556  S
O52         Mg94   2.153       .  S
O52         Mg77   2.157   1_554  S
O52          C73   1.235       .  S
O53          C84   1.270   1_554  A
O53         Mg77   2.298   1_554  S
C54          O56   1.273       .  A
C54          O68   1.276       .  A
C54         C290   1.481       .  S
O55          C83   1.271       .  A
O55         Mg57   2.301   1_655  S
O56         Mg88   2.274       .  S
Mg57         O63   2.143       .  S
Mg57         O71   2.263       .  S
Mg57         O59   2.285       .  S
C58          O96   1.276   1_455  A
C58          O64   1.275       .  A
C58         C380   1.484       .  S
O59          C66   1.271       .  A
H60          C73   1.081       .  S
C61          O75   1.236       .  S
C61          O76   1.272       .  A
C61          H86   1.082       .  S
O62          C85   1.272       .  A
O63         Mg77   2.150       .  S
O64         Mg94   2.309       .  S
C65          O78   1.275       .  A
C65          O70   1.274   1_554  A
C65         C256   1.479       .  S
C66          O93   1.274       .  A
C66         C274   1.477       .  S
Mg67         O74   2.172       .  S
Mg67         O75   2.158       .  S
Mg67         O68   2.314       .  S
Mg67         O69   2.306   1_655  S
Mg67         O96   2.304       .  S
O69          C73   1.271       .  A
O70         Mg77   2.300       .  S
O71          C90   1.271       .  A
O72          C92   1.277       .  A
O72         Mg88   2.329       .  S
O74         Mg88   2.162       .  S
O74          C85   1.236       .  S
O75         Mg94   2.168   1_655  S
O76         Mg88   2.309       .  S
Mg77         O93   2.295       .  S
O78         Mg94   2.292       .  S
H79          C84   1.082       .  S
O80         Mg88   2.152   1_556  S
O80          C83   1.236       .  S
H81          C83   1.081       .  S
H82          C85   1.081       .  S
O87         Mg94   2.300   1_556  S
C90          O95   1.275   1_455  A
C90         C400   1.481   1_455  S
O91          C92   1.271   1_556  A
C92         C236   1.480       .  S
O97         Mg99   2.166       .  S
O97        Mg105   2.170       .  S
O97         C132   1.238       .  S
C98         O111   1.236       .  S
C98         O135   1.269       .  A
C98         H137   1.081       .  S
Mg99        O128   2.154       .  S
Mg99        O143   2.320       .  S
Mg99        O139   2.296       .  S
Mg99        O110   2.311       .  S
O100       Mg142   2.152       .  S
O100       Mg125   2.128       .  S
O100        C121   1.235       .  S
O101        C132   1.272       .  A
O101       Mg125   2.301       .  S
C102        O104   1.272       .  A
C102        O116   1.273       .  A
C102        C202   1.476       .  S
O103        C131   1.270       .  A
O103       Mg105   2.303       .  S
O104       Mg136   2.273       .  S
Mg105       O111   2.134       .  S
Mg105       O119   2.254       .  S
Mg105       O107   2.323       .  S
C106        O144   1.272       .  A
C106        O112   1.274       .  A
C106        C326   1.473       .  S
O107        C114   1.278       .  A
H108        C121   1.081       .  S
C109        O123   1.236       .  S
C109        O124   1.271       .  A
C109        H134   1.081       .  S
O110        C133   1.272       .  A
O111       Mg125   2.157       .  S
O112       Mg142   2.305       .  S
C113        O126   1.272       .  A
C113        O118   1.276       .  A
C113        C272   1.480       .  S
C114        O141   1.269       .  A
C114        C218   1.477       .  S
Mg115       O122   2.153       .  S
Mg115       O123   2.146       .  S
Mg115       O116   2.299       .  S
Mg115       O117   2.293       .  S
Mg115       O144   2.259       .  S
O117        C121   1.269       .  A
O118       Mg125   2.307       .  S
O119        C138   1.271       .  A
O120        C140   1.273       .  A
O120       Mg136   2.302       .  S
O122       Mg136   2.147       .  S
O122        C133   1.236       .  S
O123       Mg142   2.147       .  S
O124       Mg136   2.304       .  S
Mg125       O141   2.250       .  S
O126       Mg142   2.273       .  S
H127        C132   1.081       .  S
O128       Mg136   2.156       .  S
O128        C131   1.235       .  S
H129        C131   1.081       .  S
H130        C133   1.081       .  S
O135       Mg142   2.290       .  S
C138        O143   1.278       .  A
C138        C308   1.478       .  S
O139        C140   1.275       .  A
C140        C292   1.478       .  S
O145       Mg147   2.146   1_565  S
O145       Mg153   2.160       .  S
O145        C180   1.236       .  S
C146        O159   1.235       .  S
C146        O183   1.269       .  A
C146        H185   1.081       .  S
Mg147       O176   2.153       .  S
Mg147       O191   2.279       .  S
Mg147       O187   2.269       .  S
Mg147       O158   2.297   1_554  S
O148       Mg190   2.169       .  S
O148       Mg173   2.159   1_556  S
O148        C169   1.236       .  S
O149        C180   1.271       .  A
O149       Mg173   2.306       .  S
C150        O152   1.271       .  A
C150        O164   1.275       .  A
C150        C220   1.477       .  S
O151        C179   1.270       .  A
O151       Mg153   2.295   1_545  S
O152       Mg184   2.262       .  S
Mg153       O159   2.151       .  S
Mg153       O167   2.287       .  S
Mg153       O155   2.297       .  S
C154        O192   1.273       .  A
C154        O160   1.276   1_545  A
C154        C346   1.481       .  S
O155        C162   1.274       .  A
H156        C169   1.081       .  S
C157        O171   1.235       .  S
C157        O172   1.269       .  A
C157        H182   1.081       .  S
O158        C181   1.269       .  A
O159       Mg173   2.155       .  S
O160       Mg190   2.314       .  S
C161        O174   1.272   1_554  A
C161        O166   1.280       .  A
C161        C254   1.480       .  S
C162        O189   1.276       .  A
C162        C200   1.476       .  S
Mg163       O170   2.148       .  S
Mg163       O171   2.161       .  S
Mg163       O164   2.300       .  S
Mg163       O165   2.298   1_545  S
Mg163       O192   2.273       .  S
O165        C169   1.270       .  A
O166       Mg173   2.329       .  S
O167        C186   1.274       .  A
O168        C188   1.275       .  A
O168       Mg184   2.315       .  S
O170       Mg184   2.163       .  S
O170        C181   1.235       .  S
O171       Mg190   2.143   1_545  S
O172       Mg184   2.294       .  S
Mg173       O189   2.294       .  S
O174       Mg190   2.260       .  S
H175        C180   1.082   1_556  S
O176       Mg184   2.144   1_554  S
O176        C179   1.237       .  S
H177        C179   1.081       .  S
H178        C181   1.081       .  S
O183       Mg190   2.295   1_554  S
C186        O191   1.271   1_565  A
C186        C362   1.473       .  S
O187        C188   1.272   1_554  A
C188        C238   1.480       .  S
C193        C201   1.489       .  S
C193        C194   1.404       .  A
C193        C198   1.409       .  A
C194        H203   1.083       .  S
C194        C195   1.400       .  A
C195        H204   1.082       .  S
C195        C196   1.407       .  A
C196        C199   1.486       .  S
C196        C197   1.402       .  A
C197        H205   1.083       .  S
C197        C198   1.398       .  A
C198        H206   1.081       .  S
C199        H207   1.087       .  S
C199        C200   1.344       .  D
C200        H208   1.086       .  S
C201        H209   1.087       .  S
C201        C202   1.347       .  D
C202        H210   1.085       .  S
C211        C219   1.490       .  S
C211        C212   1.406       .  A
C211        C216   1.409       .  A
C212        H221   1.084       .  S
C212        C213   1.400       .  A
C213        H222   1.082       .  S
C213        C214   1.406       .  A
C214        C217   1.487       .  S
C214        C215   1.403       .  A
C215        H223   1.084       .  S
C215        C216   1.398       .  A
C216        H224   1.080       .  S
C217        H225   1.088       .  S
C217        C218   1.345       .  D
C218        H226   1.086       .  S
C219        H227   1.087       .  S
C219        C220   1.349       .  D
C220        H228   1.084       .  S
C229        C237   1.487       .  S
C229        C230   1.404   1_556  A
C229        C234   1.406       .  A
C230        H239   1.083       .  S
C230        C231   1.399       .  A
C231        H240   1.082       .  S
C231        C232   1.405   1_554  A
C232        C235   1.488       .  S
C232        C233   1.406       .  A
C233        H241   1.083       .  S
C233        C234   1.401       .  A
C234        H242   1.083       .  S
C235        H243   1.087       .  S
C235        C236   1.350   1_556  D
C236        H244   1.086       .  S
C237        H245   1.087   1_556  S
C237        C238   1.348       .  D
C238        H246   1.086       .  S
C247        C255   1.489       .  S
C247        C248   1.403       .  A
C247        C252   1.407       .  A
C248        H257   1.083       .  S
C248        C249   1.403       .  A
C249        H258   1.082       .  S
C249        C250   1.409       .  A
C250        C253   1.490       .  S
C250        C251   1.403       .  A
C251        H259   1.083       .  S
C251        C252   1.398       .  A
C252        H260   1.083       .  S
C253        H261   1.087       .  S
C253        C254   1.346       .  D
C254        H262   1.085       .  S
C255        H263   1.087       .  S
C255        C256   1.346       .  D
C256        H264   1.087   1_554  S
C265        C273   1.490       .  S
C265        C266   1.403       .  A
C265        C270   1.408       .  A
C266        H275   1.083       .  S
C266        C267   1.400       .  A
C267        H276   1.082       .  S
C267        C268   1.408       .  A
C268        C271   1.490       .  S
C268        C269   1.404       .  A
C269        H277   1.083       .  S
C269        C270   1.399       .  A
C270        H278   1.082       .  S
C271        H279   1.087       .  S
C271        C272   1.348       .  D
C272        H280   1.085       .  S
C273        H281   1.087       .  S
C273        C274   1.345       .  D
C274        H282   1.085       .  S
C283        C291   1.489       .  S
C283        C284   1.403       .  A
C283        C288   1.408       .  A
C284        H293   1.083       .  S
C284        C285   1.400       .  A
C285        H294   1.083       .  S
C285        C286   1.407       .  A
C286        C289   1.488       .  S
C286        C287   1.404       .  A
C287        H295   1.083       .  S
C287        C288   1.402       .  A
C288        H296   1.082       .  S
C289        H297   1.087       .  S
C289        C290   1.347       .  D
C290        H298   1.087       .  S
C291        H299   1.087       .  S
C291        C292   1.345       .  D
C292        H300   1.086       .  S
C301        C309   1.488       .  S
C301        C302   1.404       .  A
C301        C306   1.406       .  A
C302        H311   1.084       .  S
C302        C303   1.397       .  A
C303        H312   1.083       .  S
C303        C304   1.404       .  A
C304        C307   1.493       .  S
C304        C305   1.411       .  A
C305        H313   1.079       .  S
C305        C306   1.400       .  A
C306        H314   1.081       .  S
C307        H315   1.087       .  S
C307        C308   1.347       .  D
C308        H316   1.081       .  S
C309        H317   1.087       .  S
C309        C310   1.349       .  D
C310        H318   1.084       .  S
C319        C327   1.478       .  S
C319        C320   1.403       .  A
C319        C324   1.404       .  A
C320        H329   1.083       .  S
C320        C321   1.397       .  A
C321        H330   1.082       .  S
C321        C322   1.406       .  A
C322        C325   1.481       .  S
C322        C323   1.404       .  A
C323        H331   1.083       .  S
C323        C324   1.396       .  A
C324        H332   1.083       .  S
C325        H333   1.088       .  S
C325        C326   1.345       .  D
C326        H334   1.086       .  S
C327        H335   1.088       .  S
C327        C328   1.344       .  D
C328        H336   1.086       .  S
C337        C345   1.485       .  S
C337        C338   1.403       .  A
C337        C342   1.407       .  A
C338        H347   1.083       .  S
C338        C339   1.399       .  A
C339        H348   1.083       .  S
C339        C340   1.406       .  A
C340        C343   1.482       .  S
C340        C341   1.402       .  A
C341        H349   1.083       .  S
C341        C342   1.401       .  A
C342        H350   1.083       .  S
C343        H351   1.087       .  S
C343        C344   1.344       .  D
C344        H352   1.087   1_545  S
C345        H353   1.087       .  S
C345        C346   1.346       .  D
C346        H354   1.087   1_545  S
C355        C363   1.478       .  S
C355        C356   1.400       .  A
C355        C360   1.408   1_565  A
C356        H365   1.083       .  S
C356        C357   1.396       .  A
C357        H366   1.083       .  S
C357        C358   1.406       .  A
C358        C361   1.482       .  S
C358        C359   1.402   1_565  A
C359        H367   1.083       .  S
C359        C360   1.401       .  A
C360        H368   1.083       .  S
C361        H369   1.086       .  S
C361        C362   1.342       .  D
C362        H370   1.088   1_565  S
C363        H371   1.087       .  S
C363        C364   1.343   1_565  D
C364        H372   1.087       .  S
C373        C381   1.497       .  S
C373        C374   1.406   1_655  A
C373        C378   1.409       .  A
C374        H383   1.083       .  S
C374        C375   1.400       .  A
C375        H384   1.081       .  S
C375        C376   1.408   1_455  A
C376        C379   1.499       .  S
C376        C377   1.408       .  A
C377        H385   1.083       .  S
C377        C378   1.406       .  A
C378        H386   1.081       .  S
C379        H387   1.087       .  S
C379        C380   1.351   1_655  D
C380        H388   1.084       .  S
C381        H389   1.087   1_655  S
C381        C382   1.353       .  D
C382        H390   1.084       .  S
C391        C399   1.491       .  S
C391        C392   1.405       .  A
C391        C396   1.406   1_455  A
C392        H401   1.083       .  S
C392        C393   1.402       .  A
C393        H402   1.081       .  S
C393        C394   1.408       .  A
C394        C397   1.494       .  S
C394        C395   1.406   1_455  A
C395        H403   1.083       .  S
C395        C396   1.399       .  A
C396        H404   1.082       .  S
C397        H405   1.087   1_455  S
C397        C398   1.351       .  D
C398        H406   1.083       .  S
C399        H407   1.087       .  S
C399        C400   1.350   1_455  D
C400        H408   1.085       .  S
