geometry optimzed in LAMMPS
_audit_creation_date              2020-11-30 
_audit_creation_method            'lammps2cif' 
_symmetry_space_group_name_H-M    'P1' 
_symmetry_Int_Tables_number       1 
_symmetry_cell_setting            triclinic 
loop_ 
_symmetry_equiv_pos_as_xyz 
  x,y,z 
_cell_length_a                    45.12439813 
_cell_length_b                    44.95546701280367 
_cell_length_c                    48.25728171503037 
_cell_angle_alpha                 89.99217669231999 
_cell_angle_beta                  90.0138947362376 
_cell_angle_gamma                 120.46004170259326 
loop_ 
_atom_site_label 
_atom_site_type_symbol 
_atom_site_fract_x 
_atom_site_fract_y 
_atom_site_fract_z 
_atom_site_charge 
N1          N  0.43677372  0.93536968  0.28451143    -0.06100
N2          N  0.42074115  0.91385619  0.30526422    -0.58200
N3          N  0.42878504  0.95947295  0.22072271    -0.05800
N4          N  0.40749907  0.95517941  0.20041674    -0.60300
N5          N  0.43691163  0.93518641  0.22035634    -0.05400
N6          N  0.42109552  0.91366832  0.19954858    -0.58200
N7          N  0.42867034  0.95966763  0.28395143    -0.05100
N8          N  0.40717880  0.95538703  0.30407295    -0.60700
C9          C  0.40263379  0.92698650  0.31718829     0.96100
C10         C  0.40308530  0.92677917  0.18739143     0.95900
N11         N  0.49988775  0.06486534  0.22013786    -0.06300
N12         N  0.50459008  0.08691389  0.20002637    -0.58800
N13         N  0.46755842  0.03995218  0.28380802    -0.04400
N14         N  0.44966884  0.04432638  0.30327768    -0.60100
N15         N  0.49986904  0.06506058  0.28423573    -0.06300
N16         N  0.50459628  0.08724801  0.30421927    -0.59100
N17         N  0.46758831  0.03973179  0.22057038    -0.04000
N18         N  0.44969473  0.04394460  0.20099509    -0.60100
Mn19       Mn  0.44754544  0.99961737  0.25226725     1.18400
C20         C  0.47300500  0.07320959  0.18829225     0.98200
C21         C  0.47300954  0.07365715  0.31589138     0.98800
N22         N  0.50790744  0.93597474  0.22066383    -0.06300
N23         N  0.50314771  0.91388016  0.20059463    -0.62600
N24         N  0.54008945  0.96126751  0.28437876    -0.05100
N25         N  0.55788420  0.95703608  0.30403368    -0.63300
N26         N  0.50778144  0.93616243  0.28476271    -0.05800
N27         N  0.50295880  0.91411870  0.30490069    -0.62900
N28         N  0.54021194  0.96107521  0.22110348    -0.04700
N29         N  0.55807955  0.95679620  0.20155941    -0.63600
Mn30       Mn  0.47154837  0.93418739  0.25257644     1.10700
C31         C  0.53472224  0.92751811  0.18889594     0.99400
C32         C  0.53448214  0.92779122  0.31672010     0.99500
N33         N  0.57099190  0.06585236  0.28454655    -0.05900
N34         N  0.58699261  0.08741118  0.30530724    -0.61200
N35         N  0.57907541  0.04128789  0.22091492    -0.05200
N36         N  0.60042130  0.04542013  0.20071113    -0.58000
N37         N  0.57096832  0.06558471  0.22030865    -0.06500
N38         N  0.58686202  0.08694800  0.19943541    -0.60800
N39         N  0.57903260  0.04150277  0.28416276    -0.05500
N40         N  0.60041245  0.04578266  0.30438982    -0.58000
Mn41       Mn  0.53624138  0.06684635  0.25230371     1.20200
Mn42       Mn  0.56020162  0.00137075  0.25264300     1.10100
Cl43       Cl  0.50388308  0.00051793  0.25244872    -0.85900
C44         C  0.60500418  0.07424767  0.31741288     0.96400
C45         C  0.60489728  0.07373716  0.18749653     0.96200
N46         N  0.94100214  0.50681275  0.28484925    -0.06100
N47         N  0.91919324  0.50262747  0.30493086    -0.58200
N48         N  0.96580402  0.53835042  0.22079487    -0.05800
N49         N  0.96167316  0.55629895  0.20113570    -0.60300
N50         N  0.94036883  0.50611538  0.22069655    -0.05400
N51         N  0.91821722  0.50148952  0.20077158    -0.58200
N52         N  0.96639600  0.53905543  0.28421817    -0.05100
N53         N  0.96256921  0.55744282  0.30366950    -0.60700
C54         C  0.93324589  0.53445331  0.31648661     0.96100
C55         C  0.93211866  0.53305099  0.18875714     0.95900
N56         N  0.06946919  0.56654195  0.21983651    -0.06300
N57         N  0.09031999  0.58133700  0.19849609    -0.58800
N58         N  0.04634388  0.57596655  0.28370245    -0.04400
N59         N  0.05052627  0.59679229  0.30440188    -0.60100
N60         N  0.06999137  0.56704117  0.28418167    -0.06300
N61         N  0.09092170  0.58182923  0.30548219    -0.59100
N62         N  0.04578963  0.57542028  0.22037067    -0.04000
N63         N  0.04987188  0.59621744  0.19966589    -0.60100
Mn64       Mn  0.00626403  0.55789408  0.25225862     1.18400
C65         C  0.07748143  0.59955000  0.18622321     0.98200
C66         C  0.07818144  0.60011630  0.31776526     0.98800
N67         N  0.93840456  0.43428666  0.22094491    -0.06300
N68         N  0.91727956  0.41930802  0.19978779    -0.62600
N69         N  0.96273763  0.42601025  0.28469834    -0.05100
N70         N  0.95874703  0.40530203  0.30544678    -0.63300
N71         N  0.93910340  0.43494687  0.28529059    -0.05800
N72         N  0.91836746  0.42027516  0.30671133    -0.62900
N73         N  0.96205032  0.42536303  0.22136210    -0.04700
N74         N  0.95767010  0.40433851  0.20075815    -0.63600
Mn75       Mn  0.93823696  0.46970891  0.25296535     1.10700
C76         C  0.92989514  0.40090798  0.18751232     0.99400
C77         C  0.93123122  0.40207874  0.31897092     0.99500
N78         N  0.06806771  0.49520434  0.28438443    -0.05900
N79         N  0.09010968  0.49975969  0.30439139    -0.61200
N80         N  0.04196821  0.46241986  0.22077430    -0.05200
N81         N  0.04557068  0.44411449  0.20112986    -0.58000
N82         N  0.06739477  0.49464797  0.22016794    -0.06500
N83         N  0.08900588  0.49890996  0.19989819    -0.60800
N84         N  0.04261371  0.46298207  0.28422110    -0.05500
N85         N  0.04660783  0.44497991  0.30391073    -0.58000
Mn86       Mn  0.07025173  0.53169877  0.25213472     1.20200
Mn87       Mn  0.00218099  0.44350508  0.25276378     1.10100
Cl88       Cl  0.00424162  0.50071137  0.25253060    -0.85900
C89         C  0.07610657  0.46816789  0.31638268     0.96400
C90         C  0.07478693  0.46713871  0.18821985     0.96200
N91         N  0.50210285  0.43297032  0.28405784    -0.06100
N92         N  0.50736120  0.41637065  0.30440988    -0.58200
N93         N  0.46933225  0.42489781  0.22051588    -0.05800
N94         N  0.45164915  0.40266016  0.20080511    -0.60300
N95         N  0.50184660  0.43333568  0.21985253    -0.05400
N96         N  0.50686874  0.41669804  0.19939297    -0.58200
N97         N  0.46958437  0.42452809  0.28363066    -0.05100
N98         N  0.45211379  0.40231669  0.30339580    -0.60700
C99         C  0.47585055  0.39759608  0.31620840     0.96100
C100        C  0.47524527  0.39792531  0.18775348     0.95900
N101        N  0.43486921  0.49520958  0.22076779    -0.06300
N102        N  0.41722447  0.49947051  0.20075677    -0.58800
N103        N  0.42798162  0.46244449  0.28421288    -0.04400
N104        N  0.40566318  0.44386478  0.30359958    -0.60100
N105        N  0.43494722  0.49463022  0.28491305    -0.06300
N106        N  0.41721286  0.49852885  0.30503998    -0.59100
N107        N  0.42791247  0.46301548  0.22104577    -0.04000
N108        N  0.40570777  0.44479253  0.20149080    -0.60100
Mn109      Mn  0.44829459  0.44326232  0.25234902     1.18400
C110        C  0.39942116  0.46774075  0.18895220     0.98200
C111        C  0.39933672  0.46659867  0.31648358     0.98800
N112        N  0.57262958  0.50596963  0.22004509    -0.06300
N113        N  0.59033726  0.50206388  0.19989930    -0.62600
N114        N  0.57975790  0.53763624  0.28395547    -0.05100
N115        N  0.60197181  0.55588026  0.30350505    -0.63300
N116        N  0.57284496  0.50546289  0.28422972    -0.05800
N117        N  0.59053246  0.50123669  0.30423382    -0.62900
N118        N  0.57957517  0.53815027  0.22074035    -0.04700
N119        N  0.60184982  0.55671847  0.20132896    -0.63600
Mn120      Mn  0.53811169  0.46868280  0.25202517     1.10700
C121        C  0.60816740  0.53398624  0.18843341     0.99400
C122        C  0.60831995  0.53297248  0.31604759     0.99500
N123        N  0.50576026  0.56721746  0.28520787    -0.05900
N124        N  0.50075450  0.58384708  0.30568364    -0.61200
N125        N  0.53812462  0.57629771  0.22141727    -0.05200
N126        N  0.55577575  0.59908682  0.20203825    -0.58000
N127        N  0.50562963  0.56794719  0.22102631    -0.06500
N128        N  0.50059369  0.58522186  0.20109767    -0.60800
N129        N  0.53826502  0.57562353  0.28453684    -0.05500
N130        N  0.55595469  0.59781533  0.30426569    -0.58000
Mn131      Mn  0.46954136  0.53198622  0.25298457     1.20200
Mn132      Mn  0.55932066  0.55735245  0.25264833     1.10100
Cl133      Cl  0.50380842  0.50031773  0.25247788    -0.85900
C134        C  0.53237992  0.60256435  0.31733231     0.96400
C135        C  0.53219326  0.60427453  0.18947991     0.96200
N136        N  0.83674634  0.59901003  0.44193580    -0.06100
N137        N  0.86331832  0.60887423  0.42506106    -0.58200
N138        N  0.75177929  0.56720669  0.44298120    -0.05800
N139        N  0.72467439  0.55442647  0.42671186    -0.60300
N140        N  0.76921670  0.60114790  0.44187955    -0.05400
N141        N  0.75408589  0.61215043  0.42444666    -0.58200
N142        N  0.81826910  0.56509761  0.44279325    -0.05100
N143        N  0.83167831  0.55120202  0.42680854    -0.60700
C144        C  0.85976101  0.57862095  0.41606085     0.96100
C145        C  0.72619342  0.58252265  0.41549512     0.95900
N146        N  0.72162282  0.51082684  0.01616911    -0.06300
N147        N  0.69002897  0.49195165  0.02580336    -0.58800
N148        N  0.78913446  0.50917898  0.48883454    -0.04400
N149        N  0.80225049  0.49088180  0.47915701    -0.60100
N150        N  0.78914485  0.50911889  0.01604151    -0.06300
N151        N  0.80227721  0.49078242  0.02560875    -0.59100
N152        N  0.72157830  0.51084118  0.48895259    -0.04000
N153        N  0.68994139  0.49197491  0.47938608    -0.60100
Mn154      Mn  0.76983128  0.53748666  0.46548651     1.18400
C155        C  0.67065454  0.48079569  0.00261675     0.98200
C156        C  0.81054216  0.47995970  0.00235004     0.98800
N157        N  0.79942409  0.65893976  0.48902916    -0.06300
N158        N  0.78455442  0.67588047  0.47961290    -0.62600
N159        N  0.86779663  0.65657041  0.01623473    -0.05100
N160        N  0.89974210  0.67210259  0.02571162    -0.63300
N161        N  0.86774680  0.65664749  0.48889213    -0.05800
N162        N  0.89966720  0.67223171  0.47935945    -0.62900
N163        N  0.79952457  0.65892216  0.01637535    -0.04700
N164        N  0.78471564  0.67583914  0.02596291    -0.63600
Mn165      Mn  0.81894013  0.63022959  0.46478371     1.10700
C166        C  0.77566313  0.68639297  0.00284109     0.99400
C167        C  0.91931471  0.68183284  0.50251949     0.99500
N168        N  0.81833428  0.56484186  0.06216926    -0.05900
N169        N  0.83158024  0.55079397  0.07815890    -0.61200
N170        N  0.76948387  0.60108215  0.06328574    -0.05200
N171        N  0.75434840  0.61220485  0.08057231    -0.58000
N172        N  0.75196377  0.56714367  0.06219309    -0.06500
N173        N  0.72477858  0.55446974  0.07836479    -0.60800
N174        N  0.83687974  0.59874445  0.06312603    -0.05500
N175        N  0.86334077  0.60844825  0.08010834    -0.58000
Mn176      Mn  0.76990146  0.53738365  0.03954902     1.20200
Mn177      Mn  0.81910545  0.63011401  0.04040569     1.10100
Cl178      Cl  0.79448618  0.58397367  0.00255516    -0.85900
C179        C  0.85963819  0.57809834  0.08902972     0.96400
C180        C  0.72637251  0.58265646  0.08948200     0.96200
N181        N  0.76568412  0.17141262  0.44221125    -0.06100
N182        N  0.74929206  0.14429896  0.42566683    -0.58200
N183        N  0.81701319  0.25711759  0.44377086    -0.05800
N184        N  0.83209807  0.28559425  0.42898706    -0.60300
N185        N  0.83461674  0.24108348  0.44298998    -0.05400
N186        N  0.86230907  0.25856605  0.42732123    -0.58200
N187        N  0.74925707  0.18862793  0.44304120    -0.05100
N188        N  0.72158143  0.17384549  0.42741091    -0.60700
C189        C  0.72176906  0.14626829  0.41690866     0.96100
C190        C  0.86025595  0.28630719  0.41905814     0.95900
N191        N  0.78822784  0.28479897  0.01599765    -0.06300
N192        N  0.80127181  0.31645029  0.02566194    -0.58800
N193        N  0.72004361  0.21555344  0.48839489    -0.04400
N194        N  0.68856434  0.20222479  0.47854172    -0.60100
N195        N  0.71975940  0.21542461  0.01560299    -0.06300
N196        N  0.68806656  0.20200690  0.02499510    -0.59100
N197        N  0.78850197  0.28488227  0.48880312    -0.04000
N198        N  0.80173621  0.31658363  0.47921038    -0.60100
Mn199      Mn  0.76838936  0.23681749  0.46546731     1.18400
C200        C  0.80982613  0.33583116  0.00245726     0.98200
C201        C  0.66905035  0.19364680  0.00162555     0.98800
N202        N  0.86347046  0.21215251  0.48925024    -0.06300
N203        N  0.89541730  0.22695400  0.47987383    -0.62600
N204        N  0.79345833  0.14203688  0.01625258    -0.05100
N205        N  0.77790174  0.10996615  0.02572099    -0.63300
N206        N  0.79364527  0.14210223  0.48892010    -0.05800
N207        N  0.77823069  0.11008338  0.47935634    -0.62900
N208        N  0.86328927  0.21213066  0.01656774    -0.04700
N209        N  0.89511630  0.22691537  0.02623771    -0.63600
Mn210      Mn  0.81495526  0.19111131  0.46509199     1.10700
C211        C  0.91484613  0.23595083  0.00313995     0.99400
C212        C  0.76865476  0.09034342  0.00250769     0.99500
N213        N  0.74827652  0.18818169  0.06144427    -0.05900
N214        N  0.72047718  0.17329711  0.07692445    -0.61200
N215        N  0.83358474  0.24073289  0.06248984    -0.05200
N216        N  0.86089490  0.25800882  0.07859521    -0.58000
N217        N  0.81594128  0.25672291  0.06150861    -0.06500
N218        N  0.83064063  0.28497564  0.07658570    -0.60800
N219        N  0.76482642  0.17109514  0.06249918    -0.05500
N220        N  0.74842031  0.14399184  0.07902705    -0.58000
Mn221      Mn  0.76770153  0.23654594  0.03917477     1.20200
Mn222      Mn  0.81439606  0.19094328  0.04020126     1.10100
Cl223      Cl  0.79140753  0.21378709  0.00248838    -0.85900
C224        C  0.72074332  0.14579585  0.08753265     0.96400
C225        C  0.85859628  0.28558932  0.08690863     0.96200
N226        N  0.24237837  0.82944645  0.44198359    -0.06100
N227        N  0.25861179  0.85639233  0.42528316    -0.58200
N228        N  0.19112059  0.74383358  0.44365085    -0.05800
N229        N  0.17612852  0.71542028  0.42878215    -0.60300
N230        N  0.17356295  0.75991501  0.44274979    -0.05400
N231        N  0.14600917  0.74253567  0.42691544    -0.58200
N232        N  0.25882698  0.81225665  0.44289806    -0.05100
N233        N  0.28637941  0.82689518  0.42713365    -0.60700
C234        C  0.28606197  0.85435658  0.41650488     0.96100
C235        C  0.14807149  0.71479435  0.41868975     0.95900
N236        N  0.21967405  0.71628819  0.01607306    -0.06300
N237        N  0.20667227  0.68466496  0.02578804    -0.58800
N238        N  0.28794528  0.78552357  0.48858641    -0.04400
N239        N  0.31948817  0.79892800  0.47886980    -0.60100
N240        N  0.28807963  0.78565197  0.01579585    -0.06300
N241        N  0.31972213  0.79915228  0.02532604    -0.59100
N242        N  0.21956659  0.71616750  0.48888079    -0.04000
N243        N  0.20648683  0.68446616  0.47933210    -0.60100
Mn244      Mn  0.23968791  0.76417838  0.46548322     1.18400
C245        C  0.19831868  0.66526426  0.00260875     0.98200
C246        C  0.33887262  0.80756941  0.00203912     0.98800
N247        N  0.14465020  0.78904048  0.48875501    -0.06300
N248        N  0.11272143  0.77404874  0.47930607    -0.62600
N249        N  0.21470390  0.85929931  0.01575814    -0.05100
N250        N  0.23013791  0.89141185  0.02513577    -0.63300
N251        N  0.21454352  0.85912133  0.48842321    -0.05800
N252        N  0.22986911  0.89110792  0.47877381    -0.62900
N253        N  0.14477209  0.78921651  0.01606942    -0.04700
N254        N  0.11291501  0.77433931  0.02566861    -0.63600
Mn255      Mn  0.19318318  0.80995918  0.46473100     1.06200
C256        C  0.09323439  0.76509988  0.00252977     0.99400
C257        C  0.23935979  0.91095394  0.00187175     0.99500
N258        N  0.25944581  0.81289590  0.06141750    -0.05900
N259        N  0.28716981  0.82764332  0.07699095    -0.61200
N260        N  0.17413174  0.76059893  0.06213002    -0.05200
N261        N  0.14656541  0.74325769  0.07795303    -0.58000
N262        N  0.19165898  0.74448341  0.06126590    -0.06500
N263        N  0.17664038  0.71609180  0.07616341    -0.60800
N264        N  0.24306447  0.83015423  0.06232342    -0.05500
N265        N  0.25953290  0.85726020  0.07885032    -0.58000
Mn266      Mn  0.24003433  0.76456032  0.03917161     1.20200
Mn267      Mn  0.19358183  0.81042232  0.03983347     1.10100
Cl268      Cl  0.21656545  0.78737625  0.00230735    -0.85900
C269        C  0.28705808  0.85525154  0.08750753     0.96400
C270        C  0.14860831  0.71552280  0.08624137     0.96200
N271        N  0.51125917  0.78666672  0.01606347    -0.06100
N272        N  0.49329686  0.80025098  0.02550719    -0.58200
N273        N  0.51200028  0.71799000  0.48941745    -0.05800
N274        N  0.49353566  0.68612986  0.47999740    -0.60300
N275        N  0.51201363  0.71824719  0.01662111    -0.05400
N276        N  0.49355683  0.68656572  0.02641539    -0.58200
N277        N  0.51119782  0.78636797  0.48886202    -0.05100
N278        N  0.49320035  0.79974204  0.47906169    -0.60700
C279        C  0.48258047  0.80850349  0.00217324     0.96100
C280        C  0.48258591  0.66692784  0.00331799     0.95900
N281        N  0.60181552  0.76454062  0.44235302    -0.06300
N282        N  0.61240095  0.74886874  0.42509684    -0.58800
N283        N  0.56679026  0.81440983  0.44280829    -0.04400
N284        N  0.55308757  0.82767836  0.42649121    -0.60100
N285        N  0.60058458  0.83264380  0.44182137    -0.06300
N286        N  0.61057220  0.85891239  0.42448479    -0.59100
N287        N  0.56800376  0.74739976  0.44355387    -0.04000
N288        N  0.55489673  0.71996493  0.42755204    -0.60100
Mn289      Mn  0.53887616  0.76619044  0.46575753     1.18400
C290        C  0.58265142  0.72097539  0.41639212     0.98200
C291        C  0.58049773  0.85540575  0.41539476     0.98800
N292        N  0.56811380  0.74847468  0.06239821    -0.06300
N293        N  0.55497701  0.72150398  0.07890969    -0.62600
N294        N  0.60085920  0.83362827  0.06306139    -0.05100
N295        N  0.61096401  0.85995162  0.08034788    -0.63300
N296        N  0.56705922  0.81551781  0.06206559    -0.05800
N297        N  0.55346965  0.82893566  0.07832684    -0.62900
N298        N  0.60193236  0.76553808  0.06353161    -0.04700
N299        N  0.61248518  0.75029052  0.08126997    -0.63600
Mn300      Mn  0.53899042  0.76690049  0.03967952     1.10700
C301        C  0.58270808  0.72271672  0.09032842     0.99400
C302        C  0.58095718  0.85663401  0.08937141     0.99500
N303        N  0.65826014  0.86379451  0.48874109    -0.05900
N304        N  0.67404881  0.89580848  0.47911535    -0.61200
N305        N  0.65983966  0.79505989  0.01649154    -0.05200
N306        N  0.67705064  0.78057482  0.02609768    -0.58000
N307        N  0.65981430  0.79490378  0.48915205    -0.06500
N308        N  0.67699361  0.78030349  0.47974242    -0.60800
N309        N  0.65831863  0.86396063  0.01608638    -0.05500
N310        N  0.67413543  0.89607740  0.02546750    -0.58000
Mn311      Mn  0.63137059  0.81461328  0.46487088     1.20200
Mn312      Mn  0.63149200  0.81516931  0.04041932     1.10100
Cl313      Cl  0.58531229  0.79076110  0.00268415    -0.85900
C314        C  0.68391159  0.91563944  0.50222284     0.96400
C315        C  0.68768104  0.77161410  0.00297626     0.96200
N316        N  0.17123070  0.40237234  0.44208953    -0.06100
N317        N  0.14483637  0.39257667  0.42501727    -0.58200
N318        N  0.25620501  0.43414371  0.44323718    -0.05800
N319        N  0.28345233  0.44682193  0.42713360    -0.60300
N320        N  0.23869825  0.40020323  0.44214918    -0.05400
N321        N  0.25390755  0.38908713  0.42493868    -0.58200
N322        N  0.18973281  0.43628099  0.44300307    -0.05100
N323        N  0.17650653  0.45024048  0.42688849    -0.60700
C324        C  0.14852011  0.42287617  0.41598779     0.96100
C325        C  0.28191271  0.41863363  0.41606920     0.95900
N326        N  0.28631288  0.49056016  0.01642469    -0.06300
N327        N  0.31790107  0.50940352  0.02608853    -0.58800
N328        N  0.21870473  0.49203925  0.48916171    -0.04400
N329        N  0.20547170  0.51025545  0.47953296    -0.60100
N330        N  0.21865219  0.49199563  0.01637121    -0.06300
N331        N  0.20539356  0.51019051  0.02598737    -0.59100
N332        N  0.28637977  0.49058668  0.48921025    -0.04000
N333        N  0.31802824  0.50947288  0.47967045    -0.60100
Mn334      Mn  0.23812471  0.46387224  0.46573800     1.18400
C335        C  0.33729611  0.52062078  0.00292249     0.98200
C336        C  0.19707494  0.52101893  0.00275445     0.98800
N337        N  0.20859002  0.34239598  0.48899178    -0.06300
N338        N  0.22345522  0.32552521  0.47944112    -0.62600
N339        N  0.14032851  0.34453969  0.01641946    -0.05100
N340        N  0.10842674  0.32886473  0.02598331    -0.63300
N341        N  0.14025746  0.34458959  0.48907714    -0.05800
N342        N  0.10829300  0.32893354  0.47962795    -0.62900
N343        N  0.20866152  0.34240011  0.01633090    -0.04700
N344        N  0.22356664  0.32552562  0.02579637    -0.63600
Mn345      Mn  0.18900219  0.37111191  0.46492285     1.10700
C346        C  0.23250141  0.31502913  0.00259239     0.99400
C347        C  0.08875145  0.31916972  0.50284500     0.99500
N348        N  0.18961333  0.43607628  0.06243801    -0.05900
N349        N  0.17609188  0.44990880  0.07835822    -0.61200
N350        N  0.23882176  0.40019026  0.06326880    -0.05200
N351        N  0.25417083  0.38916543  0.08043400    -0.58000
N352        N  0.25619365  0.43413076  0.06222043    -0.06500
N353        N  0.28348817  0.44690389  0.07827209    -0.60800
N354        N  0.17121855  0.40216376  0.06330574    -0.05500
N355        N  0.14458356  0.39222291  0.08011648    -0.58000
Mn356      Mn  0.23803818  0.46379573  0.03978509     1.20200
Mn357      Mn  0.18910246  0.37104521  0.04049117     1.10100
Cl358      Cl  0.21350712  0.41729342  0.00273097    -0.85900
C359        C  0.14803034  0.42244065  0.08906757     0.96400
C360        C  0.28212452  0.41878351  0.08928504     0.96200
N361        N  0.49618451  0.21321499  0.01528671    -0.06100
N362        N  0.51390116  0.19934284  0.02470275    -0.58200
N363        N  0.49656375  0.28242881  0.48856145    -0.05800
N364        N  0.51529450  0.31423456  0.47908728    -0.60300
N365        N  0.49663498  0.28222753  0.01576152    -0.05400
N366        N  0.51540891  0.31388830  0.02551162    -0.58200
N367        N  0.49614801  0.21344739  0.48808147    -0.05100
N368        N  0.51382531  0.19973702  0.47826044    -0.60700
C369        C  0.52433922  0.19081796  0.00135655     0.96100
C370        C  0.52650238  0.33345043  0.00238690     0.95900
N371        N  0.40638561  0.23673888  0.44181854    -0.06300
N372        N  0.39594596  0.25270659  0.42474845    -0.58800
N373        N  0.44053569  0.18612274  0.44208406    -0.04400
N374        N  0.45394316  0.17266948  0.42566857    -0.60100
N375        N  0.40673493  0.16821861  0.44112832    -0.06300
N376        N  0.39643190  0.14198650  0.42370902    -0.59100
N377        N  0.44020357  0.25356910  0.44291654    -0.04000
N378        N  0.45346499  0.28108464  0.42699865    -0.60100
Mn379      Mn  0.46897168  0.23423444  0.46500765     1.18400
C380        C  0.42578744  0.28044262  0.41603440     0.98200
C381        C  0.42633922  0.14517057  0.41455106     0.98800
N382        N  0.44046309  0.25288494  0.06149776    -0.06300
N383        N  0.45377557  0.28036722  0.07747285    -0.62600
N384        N  0.40688917  0.16751388  0.06255204    -0.05100
N385        N  0.39658791  0.14120360  0.07989648    -0.63300
N386        N  0.44068983  0.18531980  0.06150761    -0.05800
N387        N  0.45408712  0.17171780  0.07779267    -0.62900
N388        N  0.40664319  0.23615040  0.06254852    -0.04700
N389        N  0.39625691  0.25215155  0.07962864    -0.63600
Mn390      Mn  0.46911002  0.23372458  0.03892115     1.10700
C391        C  0.42612474  0.27979181  0.08843827     0.99400
C392        C  0.42648212  0.14421496  0.08891333     0.99500
N393        N  0.34932173  0.13760584  0.48820167    -0.05900
N394        N  0.33340554  0.10557923  0.47860410    -0.61200
N395        N  0.34854632  0.20675444  0.01587782    -0.05200
N396        N  0.33145221  0.22134346  0.02549977    -0.58000
N397        N  0.34848662  0.20685450  0.48854565    -0.06500
N398        N  0.33136013  0.22151184  0.47914125    -0.60800
N399        N  0.34936741  0.13747962  0.01555088    -0.05500
N400        N  0.33348812  0.10536757  0.02495521    -0.58000
Mn401      Mn  0.37646515  0.18671685  0.46426599     1.20200
Mn402      Mn  0.37660081  0.18634483  0.03979249     1.10100
Cl403      Cl  0.42261400  0.21019509  0.00199780    -0.85900
C404        C  0.32355420  0.08576736  0.00172299     0.96400
C405        C  0.32081086  0.23030458  0.00238447     0.96200
C406        C  0.30148445  0.24812750  0.00249228    -0.18500
C407        C  0.28550382  0.26324092  0.00251927     0.05600
C408        C  0.26682531  0.28109387  0.00252740     0.07400
C409        C  0.25102932  0.29639524  0.00254426    -0.19300
C410        C  0.37321002  0.54595259  0.00302776    -0.18500
C411        C  0.40211014  0.57020954  0.00321981     0.05600
C412        C  0.43354334  0.60175044  0.00343105     0.07400
C413        C  0.45764148  0.63079680  0.00348352    -0.19300
C414        C  0.25779125  0.94850876  0.00171667    -0.18500
C415        C  0.27310270  0.97992056  0.00163400     0.05600
C416        C  0.29082782  0.01683247  0.00159812     0.07400
C417        C  0.30572114  0.04823055  0.00162180    -0.19300
C418        C  0.18520198  0.54496952  0.00274501    -0.18500
C419        C  0.17999052  0.56860468  0.00272532     0.05600
C420        C  0.18048427  0.60002680  0.00270611     0.07400
C421        C  0.18629623  0.62918343  0.00268469    -0.19300
C422        C  0.37484596  0.81962332  0.00193402    -0.18500
C423        C  0.40386294  0.82531350  0.00187393     0.05600
C424        C  0.43513960  0.82568667  0.00188645     0.07400
C425        C  0.45869713  0.82044004  0.00198510    -0.19300
C426        C  0.70173570  0.95315179  0.50212083    -0.18500
C427        C  0.71668373  0.98453569  0.00217569     0.05600
C428        C  0.73453712  0.02142239  0.00231635     0.07400
C429        C  0.75001219  0.05281827  0.00243249    -0.19300
C430        C  0.05140905  0.30140045  0.00294056    -0.18500
C431        C  0.02016148  0.28651196  0.00308118     0.05600
C432        C  0.98344359  0.26887845  0.00323051     0.07400
C433        C  0.95218982  0.25381972  0.00327098    -0.19300
C434        C  0.54839737  0.17910014  0.00113903    -0.18500
C435        C  0.57227806  0.17435054  0.00106634     0.05600
C436        C  0.60388435  0.17538275  0.00115439     0.07400
C437        C  0.63303578  0.18145097  0.00134801    -0.19300
C438        C  0.95665630  0.69947600  0.00249632    -0.18500
C439        C  0.98790403  0.71429970  0.00252303     0.05600
C440        C  0.02462573  0.73193361  0.00257429     0.07400
C441        C  0.05588361  0.74706808  0.00259498    -0.19300
C442        C  0.70694441  0.75369090  0.00306993    -0.18500
C443        C  0.72283179  0.73846001  0.00307045     0.05600
C444        C  0.74142164  0.72047871  0.00301760     0.07400
C445        C  0.75716738  0.70510175  0.00294465    -0.19300
C446        C  0.82229712  0.45590597  0.00229079    -0.18500
C447        C  0.82754648  0.43228981  0.00230481     0.05600
C448        C  0.82728295  0.40097291  0.00238594     0.07400
C449        C  0.82170471  0.37189140  0.00245542    -0.19300
C450        C  0.63482071  0.45526133  0.00265688    -0.18500
C451        C  0.60610311  0.43071340  0.00267184     0.05600
C452        C  0.57504313  0.39883300  0.00262683     0.07400
C453        C  0.55127489  0.36961662  0.00253293    -0.19300
C454        C  0.46621924  0.37374082  0.16538697    -0.18500
C455        C  0.45423529  0.35203974  0.14747817     0.05600
C456        C  0.43926000  0.32602832  0.12700204     0.07400
C457        C  0.42955868  0.30402897  0.10936630    -0.19300
C458        C  0.46705693  0.37362426  0.33865016    -0.18500
C459        C  0.45483251  0.35209273  0.35663931     0.05600
C460        C  0.43932174  0.32630543  0.37718855     0.07400
C461        C  0.42924381  0.30446489  0.39494875    -0.19300
C462        C  0.70273849  0.57997252  0.11063385    -0.18500
C463        C  0.68098858  0.57083520  0.12837819     0.05600
C464        C  0.65496844  0.55623453  0.14882853     0.07400
C465        C  0.63303643  0.54410098  0.16651012    -0.19300
C466        C  0.63309915  0.54280459  0.33804452    -0.18500
C467        C  0.65497263  0.55506340  0.35579012     0.05600
C468        C  0.68093564  0.57006669  0.37629937     0.07400
C469        C  0.70264767  0.57960281  0.39413636    -0.19300
C470        C  0.57929985  0.69922367  0.11192397    -0.18500
C471        C  0.56920112  0.67745608  0.12977923     0.05600
C472        C  0.55363852  0.65130572  0.15010241     0.07400
C473        C  0.54128524  0.62917569  0.16766425    -0.19300
C474        C  0.54151718  0.62691587  0.33957493    -0.18500
C475        C  0.55382243  0.64881679  0.35731018     0.05600
C476        C  0.56928101  0.67499373  0.37761157     0.07400
C477        C  0.57929018  0.69700275  0.39525639    -0.19300
C478        C  0.37482043  0.45801011  0.16686856    -0.18500
C479        C  0.35314202  0.44586936  0.14899393     0.05600
C480        C  0.32740104  0.43102786  0.12834513     0.07400
C481        C  0.30577104  0.42162928  0.11047887    -0.19300
C482        C  0.30547353  0.42129646  0.39485803    -0.18500
C483        C  0.32703286  0.43026430  0.37696990     0.05600
C484        C  0.35279830  0.44459387  0.35630238     0.07400
C485        C  0.37455930  0.45654292  0.33847807    -0.19300
C486        C  0.88025451  0.57416956  0.10986631    -0.18500
C487        C  0.89328773  0.56554047  0.12761722     0.05600
C488        C  0.90590705  0.55263703  0.14848741     0.07400
C489        C  0.91676065  0.54209063  0.16657463    -0.19300
C490        C  0.91818948  0.54389394  0.33865612    -0.18500
C491        C  0.90720504  0.55432194  0.35673808     0.05600
C492        C  0.89412686  0.56676013  0.37762079     0.07400
C493        C  0.88067150  0.57495177  0.39533590    -0.19300
C494        C  0.88037266  0.31091757  0.10680023    -0.18500
C495        C  0.89354431  0.33308805  0.12417591     0.05600
C496        C  0.90533783  0.35840621  0.14512925     0.07400
C497        C  0.91526676  0.37881916  0.16393574    -0.19300
C498        C  0.91691637  0.38013565  0.34266040    -0.18500
C499        C  0.90723491  0.35970274  0.36144574     0.05600
C500        C  0.89563154  0.33424240  0.38227273     0.07400
C501        C  0.88241179  0.31186815  0.39948037    -0.19300
C502        C  0.12694263  0.42605300  0.10961631    -0.18500
C503        C  0.11343652  0.43438035  0.12716358     0.05600
C504        C  0.10046352  0.44709472  0.14787591     0.07400
C505        C  0.08964963  0.45770880  0.16592730    -0.19300
C506        C  0.09134366  0.45899937  0.33858446    -0.18500
C507        C  0.10212150  0.44830553  0.35662279     0.05600
C508        C  0.11475725  0.43530505  0.37740962     0.07400
C509        C  0.12785836  0.42669854  0.39512334    -0.19300
C510        C  0.09190657  0.62162432  0.16261146    -0.18500
C511        C  0.10163324  0.64214190  0.14388199     0.05600
C512        C  0.11326216  0.66765987  0.12309550     0.07400
C513        C  0.12649111  0.69003362  0.10588584    -0.19300
C514        C  0.09246129  0.62189585  0.34153699    -0.18500
C515        C  0.10192230  0.64210971  0.36046495     0.05600
C516        C  0.11318562  0.66728602  0.38149290     0.07400
C517        C  0.12614832  0.68944115  0.39889093    -0.19300
C518        C  0.38011128  0.91181488  0.16439377    -0.18500
C519        C  0.35918393  0.90176524  0.14601440     0.05600
C520        C  0.33364769  0.89000655  0.12531593     0.07400
C521        C  0.31167019  0.87692546  0.10784093    -0.19300
C522        C  0.37934173  0.91192172  0.33995255    -0.18500
C523        C  0.35818991  0.90158412  0.35814441     0.05600
C524        C  0.33249985  0.88939486  0.37869632     0.07400
C525        C  0.31053249  0.87604376  0.39612699    -0.19300
C526        C  0.54377075  0.91211865  0.16686758    -0.18500
C527        C  0.55489206  0.90165946  0.14900807     0.05600
C528        C  0.56855040  0.88971078  0.12835747     0.07400
C529        C  0.57743924  0.87708052  0.11052845    -0.19300
C530        C  0.54349803  0.91226404  0.33871198    -0.18500
C531        C  0.55450057  0.90148252  0.35644073     0.05600
C532        C  0.56800996  0.88902878  0.37685259     0.07400
C533        C  0.57686032  0.87604590  0.39444073    -0.19300
C534        C  0.62795817  0.08856907  0.16454252    -0.18500
C535        C  0.64888786  0.09872214  0.14617169     0.05600
C536        C  0.67434826  0.11077086  0.12541346     0.07400
C537        C  0.69620810  0.12407487  0.10788252    -0.19300
C538        C  0.62822615  0.08925447  0.34030297    -0.18500
C539        C  0.64933327  0.09935826  0.35857561     0.05600
C540        C  0.67504251  0.11126724  0.37918312     0.07400
C541        C  0.69711387  0.12448233  0.39660022    -0.19300
C542        C  0.42984874  0.12361450  0.11006140    -0.18500
C543        C  0.43879299  0.11092706  0.12783392     0.05600
C544        C  0.45259509  0.09897916  0.14841970     0.07400
C545        C  0.46385024  0.08857003  0.16624774    -0.19300
C546        C  0.46389173  0.08922146  0.33775351    -0.18500
C547        C  0.45262792  0.09978939  0.35541825     0.05600
C548        C  0.43873702  0.11183303  0.37580738     0.07400
C549        C  0.42971048  0.12455605  0.39345954    -0.19300
N550        N  0.43677371  0.93536969  0.78451141    -0.06100
N551        N  0.42074111  0.91385618  0.80526419    -0.58200
N552        N  0.42878504  0.95947295  0.72072271    -0.05800
N553        N  0.40749908  0.95517945  0.70041673    -0.60300
N554        N  0.43691161  0.93518641  0.72035634    -0.05400
N555        N  0.42109549  0.91366832  0.69954857    -0.58200
N556        N  0.42867034  0.95966764  0.78395142    -0.05100
N557        N  0.40717879  0.95538703  0.80407294    -0.60700
C558        C  0.40263376  0.92698649  0.81718827     0.96100
C559        C  0.40308530  0.92677920  0.68739142     0.95900
N560        N  0.49988778  0.06486538  0.72013785    -0.06300
N561        N  0.50459008  0.08691390  0.70002636    -0.58800
N562        N  0.46755843  0.03995219  0.78380801    -0.04400
N563        N  0.44966884  0.04432636  0.80327766    -0.60100
N564        N  0.49986904  0.06506058  0.78423572    -0.06300
N565        N  0.50459628  0.08724802  0.80421926    -0.59100
N566        N  0.46758834  0.03973181  0.72057039    -0.04000
N567        N  0.44969474  0.04394461  0.70099511    -0.60100
Mn568      Mn  0.44754546  0.99961740  0.75226725     1.18400
C569        C  0.47300500  0.07320959  0.68829225     0.98200
C570        C  0.47300952  0.07365716  0.81589136     0.98800
N571        N  0.50790745  0.93597475  0.72066381    -0.06300
N572        N  0.50314771  0.91388019  0.70059460    -0.62600
N573        N  0.54008944  0.96126750  0.78437878    -0.05100
N574        N  0.55788417  0.95703605  0.80403370    -0.63300
N575        N  0.50778142  0.93616240  0.78476271    -0.05800
N576        N  0.50295877  0.91411867  0.80490068    -0.62900
N577        N  0.54021196  0.96107521  0.72110348    -0.04700
N578        N  0.55807956  0.95679619  0.70155941    -0.63600
Mn579      Mn  0.47154838  0.93418738  0.75257642     1.10700
C580        C  0.53472224  0.92751811  0.68889592     0.99400
C581        C  0.53448211  0.92779119  0.81672010     0.99500
N582        N  0.57099190  0.06585238  0.78454656    -0.05900
N583        N  0.58699261  0.08741119  0.80530724    -0.61200
N584        N  0.57907544  0.04128790  0.72091494    -0.05200
N585        N  0.60042135  0.04542015  0.70071114    -0.58000
N586        N  0.57096833  0.06558470  0.72030866    -0.06500
N587        N  0.58686202  0.08694799  0.69943541    -0.60800
N588        N  0.57903259  0.04150277  0.78416278    -0.05500
N589        N  0.60041243  0.04578266  0.80438984    -0.58000
Mn590      Mn  0.53624139  0.06684636  0.75230370     1.20200
Mn591      Mn  0.56020161  0.00137075  0.75264304     1.10100
Cl592      Cl  0.50388309  0.00051794  0.75244872    -0.85900
C593        C  0.60500417  0.07424767  0.81741289     0.96400
C594        C  0.60489729  0.07373717  0.68749654     0.96200
N595        N  0.94100213  0.50681272  0.78484926    -0.06100
N596        N  0.91919324  0.50262744  0.80493088    -0.58200
N597        N  0.96580403  0.53835042  0.72079486    -0.05800
N598        N  0.96167317  0.55629894  0.70113569    -0.60300
N599        N  0.94036883  0.50611537  0.72069655    -0.05400
N600        N  0.91821723  0.50148952  0.70077158    -0.58200
N601        N  0.96639599  0.53905539  0.78421819    -0.05100
N602        N  0.96256923  0.55744278  0.80366953    -0.60700
C603        C  0.93324592  0.53445327  0.81648664     0.96100
C604        C  0.93211866  0.53305098  0.68875713     0.95900
N605        N  0.06946916  0.56654193  0.71983650    -0.06300
N606        N  0.09031997  0.58133698  0.69849610    -0.58800
N607        N  0.04634388  0.57596654  0.78370246    -0.04400
N608        N  0.05052627  0.59679229  0.80440189    -0.60100
N609        N  0.06999136  0.56704117  0.78418168    -0.06300
N610        N  0.09092170  0.58182923  0.80548220    -0.59100
N611        N  0.04578961  0.57542028  0.72037067    -0.04000
N612        N  0.04987189  0.59621745  0.69966590    -0.60100
Mn613      Mn  0.00626402  0.55789408  0.75225864     1.18400
C614        C  0.07748144  0.59955000  0.68622321     0.98200
C615        C  0.07818142  0.60011628  0.81776527     0.98800
N616        N  0.93840454  0.43428665  0.72094490    -0.06300
N617        N  0.91727955  0.41930801  0.69978778    -0.62600
N618        N  0.96273764  0.42601026  0.78469835    -0.05100
N619        N  0.95874705  0.40530206  0.80544680    -0.63300
N620        N  0.93910338  0.43494686  0.78529060    -0.05800
N621        N  0.91836746  0.42027515  0.80671133    -0.62900
N622        N  0.96205033  0.42536304  0.72136208    -0.04700
N623        N  0.95767012  0.40433854  0.70075812    -0.63600
Mn624      Mn  0.93823692  0.46970888  0.75296535     1.10700
C625        C  0.92989516  0.40090800  0.68751229     0.99400
C626        C  0.93123124  0.40207875  0.81897094     0.99500
N627        N  0.06806769  0.49520432  0.78438443    -0.05900
N628        N  0.09010964  0.49975966  0.80439140    -0.61200
N629        N  0.04196819  0.46241985  0.72077430    -0.05200
N630        N  0.04557067  0.44411448  0.70112987    -0.58000
N631        N  0.06739474  0.49464797  0.72016793    -0.06500
N632        N  0.08900586  0.49890995  0.69989819    -0.60800
N633        N  0.04261371  0.46298205  0.78422107    -0.05500
N634        N  0.04660777  0.44497989  0.80391074    -0.58000
Mn635      Mn  0.07025170  0.53169876  0.75213471     1.20200
Mn636      Mn  0.00218101  0.44350509  0.75276378     1.10100
Cl637      Cl  0.00424159  0.50071137  0.75253059    -0.85900
C638        C  0.07610649  0.46816785  0.81638269     0.96400
C639        C  0.07478692  0.46713870  0.68821985     0.96200
N640        N  0.50210285  0.43297031  0.78405784    -0.06100
N641        N  0.50736120  0.41637064  0.80440988    -0.58200
N642        N  0.46933221  0.42489780  0.72051589    -0.05800
N643        N  0.45164911  0.40266015  0.70080512    -0.60300
N644        N  0.50184656  0.43333569  0.71985254    -0.05400
N645        N  0.50686871  0.41669804  0.69939299    -0.58200
N646        N  0.46958437  0.42452810  0.78363068    -0.05100
N647        N  0.45211380  0.40231670  0.80339581    -0.60700
C648        C  0.47585056  0.39759608  0.81620841     0.96100
C649        C  0.47524524  0.39792530  0.68775349     0.95900
N650        N  0.43486921  0.49520961  0.72076779    -0.06300
N651        N  0.41722446  0.49947051  0.70075677    -0.58800
N652        N  0.42798163  0.46244451  0.78421290    -0.04400
N653        N  0.40566318  0.44386478  0.80359960    -0.60100
N654        N  0.43494720  0.49463023  0.78491305    -0.06300
N655        N  0.41721284  0.49852886  0.80503998    -0.59100
N656        N  0.42791247  0.46301549  0.72104580    -0.04000
N657        N  0.40570775  0.44479253  0.70149083    -0.60100
Mn658      Mn  0.44829459  0.44326234  0.75234904     1.18400
C659        C  0.39942114  0.46774074  0.68895222     0.98200
C660        C  0.39933672  0.46659870  0.81648358     0.98800
N661        N  0.57262956  0.50596963  0.72004510    -0.06300
N662        N  0.59033726  0.50206387  0.69989933    -0.62600
N663        N  0.57975790  0.53763623  0.78395546    -0.05100
N664        N  0.60197181  0.55588026  0.80350504    -0.63300
N665        N  0.57284498  0.50546290  0.78422970    -0.05800
N666        N  0.59053248  0.50123670  0.80423381    -0.62900
N667        N  0.57957515  0.53815027  0.72074036    -0.04700
N668        N  0.60184981  0.55671846  0.70132897    -0.63600
Mn669      Mn  0.53811169  0.46868279  0.75202518     1.10700
C670        C  0.60816742  0.53398624  0.68843344     0.99400
C671        C  0.60831996  0.53297249  0.81604759     0.99500
N672        N  0.50576024  0.56721747  0.78520788    -0.05900
N673        N  0.50075450  0.58384713  0.80568362    -0.61200
N674        N  0.53812463  0.57629774  0.72141727    -0.05200
N675        N  0.55577579  0.59908687  0.70203829    -0.58000
N676        N  0.50562964  0.56794722  0.72102633    -0.06500
N677        N  0.50059373  0.58522194  0.70109769    -0.60800
N678        N  0.53826499  0.57562350  0.78453686    -0.05500
N679        N  0.55595467  0.59781534  0.80426570    -0.58000
Mn680      Mn  0.46954137  0.53198625  0.75298457     1.20200
Mn681      Mn  0.55932067  0.55735247  0.75264834     1.10100
Cl682      Cl  0.50380850  0.50031776  0.75247786    -0.85900
C683        C  0.53237992  0.60256439  0.81733228     0.96400
C684        C  0.53219331  0.60427461  0.68947996     0.96200
N685        N  0.83674636  0.59901002  0.94193580    -0.06100
N686        N  0.86331833  0.60887420  0.92506106    -0.58200
N687        N  0.75177929  0.56720669  0.94298120    -0.05800
N688        N  0.72467441  0.55442648  0.92671185    -0.60300
N689        N  0.76921673  0.60114791  0.94187955    -0.05400
N690        N  0.75408594  0.61215044  0.92444665    -0.58200
N691        N  0.81826909  0.56509759  0.94279325    -0.05100
N692        N  0.83167830  0.55120200  0.92680853    -0.60700
C693        C  0.85976100  0.57862092  0.91606083     0.96100
C694        C  0.72619345  0.58252267  0.91549509     0.95900
N695        N  0.72162283  0.51082686  0.51616910    -0.06300
N696        N  0.69002897  0.49195168  0.52580336    -0.58800
N697        N  0.78913446  0.50917897  0.98883454    -0.04400
N698        N  0.80225051  0.49088180  0.97915699    -0.60100
N699        N  0.78914483  0.50911889  0.51604152    -0.06300
N700        N  0.80227718  0.49078240  0.52560876    -0.59100
N701        N  0.72157829  0.51084118  0.98895259    -0.04000
N702        N  0.68994138  0.49197496  0.97938608    -0.60100
Mn703      Mn  0.76983127  0.53748666  0.96548651     1.18400
C704        C  0.67065456  0.48079566  0.50261676     0.98200
C705        C  0.81054211  0.47995968  0.50235006     0.98800
N706        N  0.79942411  0.65893976  0.98902914    -0.06300
N707        N  0.78455444  0.67588046  0.97961289    -0.62600
N708        N  0.86779661  0.65657042  0.51623472    -0.05100
N709        N  0.89974209  0.67210257  0.52571161    -0.63300
N710        N  0.86774683  0.65664748  0.98889213    -0.05800
N711        N  0.89966721  0.67223169  0.97935946    -0.62900
N712        N  0.79952455  0.65892217  0.51637536    -0.04700
N713        N  0.78471564  0.67583916  0.52596293    -0.63600
Mn714      Mn  0.81894015  0.63022958  0.96478371     1.10700
C715        C  0.77566313  0.68639298  0.50284111     0.99400
C716        C  0.91931473  0.68183286  0.00251950     0.99500
N717        N  0.81833425  0.56484187  0.56216928    -0.05900
N718        N  0.83158022  0.55079399  0.57815892    -0.61200
N719        N  0.76948386  0.60108216  0.56328573    -0.05200
N720        N  0.75434836  0.61220487  0.58057228    -0.58000
N721        N  0.75196377  0.56714368  0.56219311    -0.06500
N722        N  0.72477854  0.55446976  0.57836476    -0.60800
N723        N  0.83687969  0.59874446  0.56312605    -0.05500
N724        N  0.86334076  0.60844827  0.58010834    -0.58000
Mn725      Mn  0.76990144  0.53738362  0.53954904     1.20200
Mn726      Mn  0.81910542  0.63011404  0.54040570     1.10100
Cl727      Cl  0.79448614  0.58397367  0.50255516    -0.85900
C728        C  0.85963818  0.57809835  0.58902972     0.96400
C729        C  0.72637246  0.58265648  0.58948195     0.96200
N730        N  0.76568414  0.17141261  0.94221125    -0.06100
N731        N  0.74929209  0.14429894  0.92566683    -0.58200
N732        N  0.81701321  0.25711758  0.94377086    -0.05800
N733        N  0.83209809  0.28559425  0.92898705    -0.60300
N734        N  0.83461676  0.24108348  0.94298999    -0.05400
N735        N  0.86230908  0.25856604  0.92732123    -0.58200
N736        N  0.74925708  0.18862791  0.94304120    -0.05100
N737        N  0.72158144  0.17384546  0.92741091    -0.60700
C738        C  0.72176908  0.14626827  0.91690865     0.96100
C739        C  0.86025597  0.28630718  0.91905813     0.95900
N740        N  0.78822782  0.28479897  0.51599765    -0.06300
N741        N  0.80127183  0.31645029  0.52566194    -0.58800
N742        N  0.72004361  0.21555342  0.98839490    -0.04400
N743        N  0.68856434  0.20222477  0.97854173    -0.60100
N744        N  0.71975938  0.21542463  0.51560299    -0.06300
N745        N  0.68806655  0.20200688  0.52499510    -0.59100
N746        N  0.78850198  0.28488227  0.98880311    -0.04000
N747        N  0.80173622  0.31658363  0.97921038    -0.60100
Mn748      Mn  0.76838938  0.23681748  0.96546732     1.18400
C749        C  0.80982615  0.33583117  0.50245726     0.98200
C750        C  0.66905034  0.19364680  0.50162554     0.98800
N751        N  0.86347051  0.21215253  0.98925024    -0.06300
N752        N  0.89541733  0.22695402  0.97987382    -0.62600
N753        N  0.79345831  0.14203689  0.51625257    -0.05100
N754        N  0.77790172  0.10996614  0.52572099    -0.63300
N755        N  0.79364531  0.14210223  0.98892010    -0.05800
N756        N  0.77823068  0.11008338  0.97935634    -0.62900
N757        N  0.86328926  0.21213067  0.51656776    -0.04700
N758        N  0.89511627  0.22691538  0.52623772    -0.63600
Mn759      Mn  0.81495530  0.19111131  0.96509199     1.10700
C760        C  0.91484610  0.23595083  0.50313996     0.99400
C761        C  0.76865477  0.09034342  0.50250769     0.99500
N762        N  0.74827647  0.18818166  0.56144425    -0.05900
N763        N  0.72047716  0.17329710  0.57692445    -0.61200
N764        N  0.83358471  0.24073289  0.56248984    -0.05200
N765        N  0.86089487  0.25800882  0.57859521    -0.58000
N766        N  0.81594124  0.25672288  0.56150860    -0.06500
N767        N  0.83064060  0.28497562  0.57658572    -0.60800
N768        N  0.76482639  0.17109512  0.56249917    -0.05500
N769        N  0.74842028  0.14399183  0.57902706    -0.58000
Mn770      Mn  0.76770147  0.23654593  0.53917477     1.20200
Mn771      Mn  0.81439605  0.19094327  0.54020127     1.10100
Cl772      Cl  0.79140749  0.21378709  0.50248837    -0.85900
C773        C  0.72074331  0.14579586  0.58753267     0.96400
C774        C  0.85859624  0.28558930  0.58690864     0.96200
N775        N  0.24237836  0.82944644  0.94198359    -0.06100
N776        N  0.25861179  0.85639231  0.92528316    -0.58200
N777        N  0.19112061  0.74383357  0.94365084    -0.05800
N778        N  0.17612853  0.71542027  0.92878216    -0.60300
N779        N  0.17356296  0.75991500  0.94274979    -0.05400
N780        N  0.14600918  0.74253565  0.92691545    -0.58200
N781        N  0.25882697  0.81225662  0.94289805    -0.05100
N782        N  0.28637939  0.82689516  0.92713364    -0.60700
C783        C  0.28606197  0.85435656  0.91650487     0.96100
C784        C  0.14807148  0.71479432  0.91868977     0.95900
N785        N  0.21967403  0.71628819  0.51607308    -0.06300
N786        N  0.20667223  0.68466496  0.52578805    -0.58800
N787        N  0.28794531  0.78552359  0.98858638    -0.04400
N788        N  0.31948820  0.79892801  0.97886977    -0.60100
N789        N  0.28807960  0.78565193  0.51579588    -0.06300
N790        N  0.31972210  0.79915223  0.52532607    -0.59100
N791        N  0.21956660  0.71616749  0.98888078    -0.04000
N792        N  0.20648683  0.68446616  0.97933209    -0.60100
Mn793      Mn  0.23968793  0.76417837  0.96548320     1.18400
C794        C  0.19831867  0.66526427  0.50260876     0.98200
C795        C  0.33887258  0.80756937  0.50203915     0.98800
N796        N  0.14465021  0.78904051  0.98875499    -0.06300
N797        N  0.11272143  0.77404875  0.97930605    -0.62600
N798        N  0.21470392  0.85929932  0.51575815    -0.05100
N799        N  0.23013794  0.89141185  0.52513577    -0.63300
N800        N  0.21454349  0.85912134  0.98842320    -0.05800
N801        N  0.22986907  0.89110793  0.97877380    -0.62900
N802        N  0.14477208  0.78921649  0.51606944    -0.04700
N803        N  0.11291500  0.77433932  0.52566863    -0.63600
Mn804      Mn  0.19318318  0.80995919  0.96473099     1.06200
C805        C  0.09323438  0.76509988  0.50252979     0.99400
C806        C  0.23935985  0.91095394  0.50187175     0.99500
N807        N  0.25944579  0.81289587  0.56141752    -0.05900
N808        N  0.28716977  0.82764328  0.57699098    -0.61200
N809        N  0.17413169  0.76059893  0.56213004    -0.05200
N810        N  0.14656535  0.74325768  0.57795304    -0.58000
N811        N  0.19165892  0.74448339  0.56126590    -0.06500
N812        N  0.17664032  0.71609179  0.57616341    -0.60800
N813        N  0.24306445  0.83015422  0.56232344    -0.05500
N814        N  0.25953290  0.85726020  0.57885031    -0.58000
Mn815      Mn  0.24003430  0.76456031  0.53917161     1.20200
Mn816      Mn  0.19358179  0.81042232  0.53983351     1.10100
Cl817      Cl  0.21656543  0.78737625  0.50230736    -0.85900
C818        C  0.28705808  0.85525154  0.58750754     0.96400
C819        C  0.14860824  0.71552278  0.58624137     0.96200
N820        N  0.51125915  0.78666669  0.51606345    -0.06100
N821        N  0.49329683  0.80025095  0.52550719    -0.58200
N822        N  0.51200029  0.71799001  0.98941746    -0.05800
N823        N  0.49353568  0.68612987  0.97999741    -0.60300
N824        N  0.51201363  0.71824718  0.51662110    -0.05400
N825        N  0.49355685  0.68656570  0.52641538    -0.58200
N826        N  0.51119783  0.78636798  0.98886202    -0.05100
N827        N  0.49320035  0.79974203  0.97906169    -0.60700
C828        C  0.48258045  0.80850348  0.50217324     0.96100
C829        C  0.48258591  0.66692782  0.50331798     0.95900
N830        N  0.60181553  0.76454060  0.94235304    -0.06300
N831        N  0.61240095  0.74886872  0.92509686    -0.58800
N832        N  0.56679027  0.81440981  0.94280829    -0.04400
N833        N  0.55308759  0.82767834  0.92649121    -0.60100
N834        N  0.60058460  0.83264377  0.94182137    -0.06300
N835        N  0.61057222  0.85891236  0.92448479    -0.59100
N836        N  0.56800377  0.74739975  0.94355389    -0.04000
N837        N  0.55489674  0.71996491  0.92755206    -0.60100
Mn838      Mn  0.53887619  0.76619044  0.96575755     1.18400
C839        C  0.58265142  0.72097536  0.91639213     0.98200
C840        C  0.58049775  0.85540573  0.91539475     0.98800
N841        N  0.56811383  0.74847471  0.56239818    -0.06300
N842        N  0.55497703  0.72150401  0.57890968    -0.62600
N843        N  0.60085918  0.83362825  0.56306139    -0.05100
N844        N  0.61096399  0.85995161  0.58034788    -0.63300
N845        N  0.56705921  0.81551781  0.56206558    -0.05800
N846        N  0.55346962  0.82893565  0.57832684    -0.62900
N847        N  0.60193239  0.76553810  0.56353158    -0.04700
N848        N  0.61248520  0.75029056  0.58126997    -0.63600
Mn849      Mn  0.53899039  0.76690047  0.53967952     1.10700
C850        C  0.58270810  0.72271676  0.59032841     0.99400
C851        C  0.58095716  0.85663399  0.58937142     0.99500
N852        N  0.65826019  0.86379450  0.98874110    -0.05900
N853        N  0.67404883  0.89580846  0.97911535    -0.61200
N854        N  0.65983966  0.79505991  0.51649152    -0.05200
N855        N  0.67705063  0.78057483  0.52609766    -0.58000
N856        N  0.65981433  0.79490377  0.98915206    -0.06500
N857        N  0.67699361  0.78030347  0.97974244    -0.60800
N858        N  0.65831860  0.86396064  0.51608637    -0.05500
N859        N  0.67413539  0.89607741  0.52546750    -0.58000
Mn860      Mn  0.63137062  0.81461327  0.96487090     1.20200
Mn861      Mn  0.63149201  0.81516932  0.54041930     1.10100
Cl862      Cl  0.58531224  0.79076105  0.50268414    -0.85900
C863        C  0.68391161  0.91563943  0.00222284     0.96400
C864        C  0.68768103  0.77161413  0.50297623     0.96200
N865        N  0.17123070  0.40237233  0.94208952    -0.06100
N866        N  0.14483638  0.39257667  0.92501724    -0.58200
N867        N  0.25620500  0.43414367  0.94323719    -0.05800
N868        N  0.28345232  0.44682190  0.92713360    -0.60300
N869        N  0.23869824  0.40020321  0.94214919    -0.05400
N870        N  0.25390753  0.38908710  0.92493868    -0.58200
N871        N  0.18973281  0.43628098  0.94300306    -0.05100
N872        N  0.17650655  0.45024047  0.92688847    -0.60700
C873        C  0.14852014  0.42287617  0.91598777     0.96100
C874        C  0.28191269  0.41863360  0.91606918     0.95900
N875        N  0.28631289  0.49056018  0.51642470    -0.06300
N876        N  0.31790108  0.50940355  0.52608854    -0.58800
N877        N  0.21870475  0.49203927  0.98916171    -0.04400
N878        N  0.20547171  0.51025545  0.97953296    -0.60100
N879        N  0.21865217  0.49199561  0.51637120    -0.06300
N880        N  0.20539357  0.51019050  0.52598737    -0.59100
N881        N  0.28637978  0.49058667  0.98921025    -0.04000
N882        N  0.31802825  0.50947286  0.97967045    -0.60100
Mn883      Mn  0.23812471  0.46387223  0.96573800     1.18400
C884        C  0.33729610  0.52062081  0.50292249     0.98200
C885        C  0.19707494  0.52101893  0.50275445     0.98800
N886        N  0.20859003  0.34239600  0.98899179    -0.06300
N887        N  0.22345522  0.32552522  0.97944113    -0.62600
N888        N  0.14032851  0.34453969  0.51641946    -0.05100
N889        N  0.10842673  0.32886469  0.52598331    -0.63300
N890        N  0.14025747  0.34458959  0.98907714    -0.05800
N891        N  0.10829300  0.32893353  0.97962795    -0.62900
N892        N  0.20866151  0.34240009  0.51633089    -0.04700
N893        N  0.22356664  0.32552558  0.52579637    -0.63600
Mn894      Mn  0.18900218  0.37111189  0.96492286     1.10700
C895        C  0.23250141  0.31502911  0.50259238     0.99400
C896        C  0.08875146  0.31916974  0.00284500     0.99500
N897        N  0.18961334  0.43607627  0.56243801    -0.05900
N898        N  0.17609191  0.44990881  0.57835822    -0.61200
N899        N  0.23882177  0.40019026  0.56326878    -0.05200
N900        N  0.25417083  0.38916542  0.58043398    -0.58000
N901        N  0.25619367  0.43413076  0.56222042    -0.06500
N902        N  0.28348819  0.44690388  0.57827207    -0.60800
N903        N  0.17121856  0.40216375  0.56330575    -0.05500
N904        N  0.14458357  0.39222292  0.58011650    -0.58000
Mn905      Mn  0.23803819  0.46379574  0.53978509     1.20200
Mn906      Mn  0.18910245  0.37104519  0.54049116     1.10100
Cl907      Cl  0.21350711  0.41729344  0.50273097    -0.85900
C908        C  0.14803037  0.42244066  0.58906758     0.96400
C909        C  0.28212453  0.41878350  0.58928502     0.96200
N910        N  0.49618454  0.21321504  0.51528669    -0.06100
N911        N  0.51390119  0.19934288  0.52470275    -0.58200
N912        N  0.49656376  0.28242882  0.98856147    -0.05800
N913        N  0.51529451  0.31423456  0.97908731    -0.60300
N914        N  0.49663499  0.28222752  0.51576149    -0.05400
N915        N  0.51540893  0.31388828  0.52551161    -0.58200
N916        N  0.49614796  0.21344734  0.98808148    -0.05100
N917        N  0.51382526  0.19973696  0.97826044    -0.60700
C918        C  0.52433926  0.19081801  0.50135655     0.96100
C919        C  0.52650237  0.33345041  0.50238688     0.95900
N920        N  0.40638559  0.23673887  0.94181854    -0.06300
N921        N  0.39594594  0.25270659  0.92474846    -0.58800
N922        N  0.44053568  0.18612276  0.94208407    -0.04400
N923        N  0.45394317  0.17266949  0.92566859    -0.60100
N924        N  0.40673492  0.16821862  0.94112833    -0.06300
N925        N  0.39643190  0.14198652  0.92370903    -0.59100
N926        N  0.44020354  0.25356910  0.94291654    -0.04000
N927        N  0.45346497  0.28108464  0.92699865    -0.60100
Mn928      Mn  0.46897165  0.23423444  0.96500766     1.18400
C929        C  0.42578742  0.28044263  0.91603442     0.98200
C930        C  0.42633922  0.14517058  0.91455107     0.98800
N931        N  0.44046312  0.25288494  0.56149775    -0.06300
N932        N  0.45377561  0.28036723  0.57747284    -0.62600
N933        N  0.40688921  0.16751390  0.56255201    -0.05100
N934        N  0.39658794  0.14120363  0.57989649    -0.63300
N935        N  0.44068985  0.18531980  0.56150758    -0.05800
N936        N  0.45408716  0.17171781  0.57779268    -0.62900
N937        N  0.40664322  0.23615041  0.56254853    -0.04700
N938        N  0.39625695  0.25215156  0.57962865    -0.63600
Mn939      Mn  0.46911003  0.23372459  0.53892114     1.10700
C940        C  0.42612479  0.27979181  0.58843826     0.99400
C941        C  0.42648214  0.14421499  0.58891335     0.99500
N942        N  0.34932174  0.13760581  0.98820168    -0.05900
N943        N  0.33340558  0.10557922  0.97860410    -0.61200
N944        N  0.34854635  0.20675446  0.51587781    -0.05200
N945        N  0.33145225  0.22134351  0.52549976    -0.58000
N946        N  0.34848661  0.20685449  0.98854565    -0.06500
N947        N  0.33136011  0.22151181  0.97914126    -0.60800
N948        N  0.34936740  0.13747964  0.51555088    -0.05500
N949        N  0.33348812  0.10536760  0.52495521    -0.58000
Mn950      Mn  0.37646514  0.18671685  0.96426600     1.20200
Mn951      Mn  0.37660084  0.18634486  0.53979249     1.10100
Cl952      Cl  0.42261401  0.21019510  0.50199779    -0.85900
C953        C  0.32355418  0.08576736  0.50172299     0.96400
C954        C  0.32081091  0.23030463  0.50238447     0.96200
C955        C  0.30148447  0.24812755  0.50249229    -0.18500
C956        C  0.28550382  0.26324094  0.50251926     0.05600
C957        C  0.26682527  0.28109385  0.50252740     0.07400
C958        C  0.25102927  0.29639520  0.50254425    -0.19300
C959        C  0.37321001  0.54595259  0.50302775    -0.18500
C960        C  0.40211014  0.57020951  0.50321983     0.05600
C961        C  0.43354333  0.60175041  0.50343105     0.07400
C962        C  0.45764148  0.63079677  0.50348351    -0.19300
C963        C  0.25779132  0.94850875  0.50171667    -0.18500
C964        C  0.27310274  0.97992053  0.50163401     0.05600
C965        C  0.29082781  0.01683246  0.50159812     0.07400
C966        C  0.30572111  0.04823054  0.50162179    -0.19300
C967        C  0.18520197  0.54496953  0.50274502    -0.18500
C968        C  0.17999051  0.56860469  0.50272530     0.05600
C969        C  0.18048430  0.60002683  0.50270609     0.07400
C970        C  0.18629627  0.62918347  0.50268469    -0.19300
C971        C  0.37484591  0.81962328  0.50193404    -0.18500
C972        C  0.40386290  0.82531347  0.50187392     0.05600
C973        C  0.43513957  0.82568667  0.50188643     0.07400
C974        C  0.45869710  0.82044004  0.50198511    -0.19300
C975        C  0.70173572  0.95315179  0.00212082    -0.18500
C976        C  0.71668373  0.98453569  0.50217570     0.05600
C977        C  0.73453716  0.02142238  0.50231636     0.07400
C978        C  0.75001222  0.05281826  0.50243249    -0.19300
C979        C  0.05140903  0.30140045  0.50294056    -0.18500
C980        C  0.02016148  0.28651195  0.50308118     0.05600
C981        C  0.98344358  0.26887844  0.50323055     0.07400
C982        C  0.95218980  0.25381973  0.50327100    -0.19300
C983        C  0.54839741  0.17910018  0.50113902    -0.18500
C984        C  0.57227806  0.17435052  0.50106635     0.05600
C985        C  0.60388433  0.17538269  0.50115440     0.07400
C986        C  0.63303578  0.18145095  0.50134801    -0.19300
C987        C  0.95665628  0.69947601  0.50249631    -0.18500
C988        C  0.98790401  0.71429975  0.50252303     0.05600
C989        C  0.02462573  0.73193364  0.50257434     0.07400
C990        C  0.05588359  0.74706807  0.50259500    -0.19300
C991        C  0.70694436  0.75369088  0.50306990    -0.18500
C992        C  0.72283175  0.73845999  0.50307043     0.05600
C993        C  0.74142160  0.72047869  0.50301764     0.07400
C994        C  0.75716735  0.70510174  0.50294468    -0.19300
C995        C  0.82229706  0.45590596  0.50229081    -0.18500
C996        C  0.82754646  0.43228983  0.50230482     0.05600
C997        C  0.82728296  0.40097294  0.50238594     0.07400
C998        C  0.82170474  0.37189143  0.50245543    -0.19300
C999        C  0.63482073  0.45526128  0.50265689    -0.18500
C1000       C  0.60610311  0.43071338  0.50267185     0.05600
C1001       C  0.57504312  0.39883298  0.50262679     0.07400
C1002       C  0.55127489  0.36961661  0.50253290    -0.19300
C1003       C  0.46621921  0.37374084  0.66538695    -0.18500
C1004       C  0.45423525  0.35203976  0.64747814     0.05600
C1005       C  0.43925999  0.32602832  0.62700201     0.07400
C1006       C  0.42955873  0.30402899  0.60936628    -0.19300
C1007       C  0.46705693  0.37362423  0.83865016    -0.18500
C1008       C  0.45483246  0.35209270  0.85663930     0.05600
C1009       C  0.43932172  0.32630541  0.87718855     0.07400
C1010       C  0.42924379  0.30446488  0.89494874    -0.19300
C1011       C  0.70273843  0.57997254  0.61063380    -0.18500
C1012       C  0.68098851  0.57083517  0.62837814     0.05600
C1013       C  0.65496840  0.55623455  0.64882851     0.07400
C1014       C  0.63303643  0.54410099  0.66651013    -0.19300
C1015       C  0.63309915  0.54280460  0.83804454    -0.18500
C1016       C  0.65497264  0.55506341  0.85579015     0.05600
C1017       C  0.68093565  0.57006670  0.87629939     0.07400
C1018       C  0.70264770  0.57960285  0.89413637    -0.19300
C1019       C  0.57929987  0.69922368  0.61192395    -0.18500
C1020       C  0.56920119  0.67745612  0.62977923     0.05600
C1021       C  0.55363858  0.65130576  0.65010241     0.07400
C1022       C  0.54128529  0.62917575  0.66766426    -0.19300
C1023       C  0.54151715  0.62691592  0.83957488    -0.18500
C1024       C  0.55382236  0.64881685  0.85731012     0.05600
C1025       C  0.56928102  0.67499377  0.87761151     0.07400
C1026       C  0.57929019  0.69700274  0.89525637    -0.19300
C1027       C  0.37482042  0.45801009  0.66686856    -0.18500
C1028       C  0.35314202  0.44586935  0.64899392     0.05600
C1029       C  0.32740105  0.43102782  0.62834511     0.07400
C1030       C  0.30577105  0.42162925  0.61047886    -0.19300
C1031       C  0.30547349  0.42129645  0.89485797    -0.18500
C1032       C  0.32703283  0.43026429  0.87696983     0.05600
C1033       C  0.35279826  0.44459388  0.85630232     0.07400
C1034       C  0.37455930  0.45654297  0.83847805    -0.19300
C1035       C  0.88025448  0.57416954  0.60986629    -0.18500
C1036       C  0.89328773  0.56554047  0.62761720     0.05600
C1037       C  0.90590707  0.55263702  0.64848738     0.07400
C1038       C  0.91676065  0.54209060  0.66657461    -0.19300
C1039       C  0.91818952  0.54389392  0.83865615    -0.18500
C1040       C  0.90720504  0.55432190  0.85673809     0.05600
C1041       C  0.89412686  0.56676009  0.87762079     0.07400
C1042       C  0.88067149  0.57495176  0.89533589    -0.19300
C1043       C  0.88037264  0.31091755  0.60680022    -0.18500
C1044       C  0.89354431  0.33308803  0.62417590     0.05600
C1045       C  0.90533787  0.35840618  0.64512925     0.07400
C1046       C  0.91526679  0.37881916  0.66393572    -0.19300
C1047       C  0.91691641  0.38013566  0.84266041    -0.18500
C1048       C  0.90723495  0.35970272  0.86144573     0.05600
C1049       C  0.89563157  0.33424237  0.88227272     0.07400
C1050       C  0.88241181  0.31186813  0.89948036    -0.19300
C1051       C  0.12694266  0.42605302  0.60961632    -0.18500
C1052       C  0.11343655  0.43438037  0.62716359     0.05600
C1053       C  0.10046356  0.44709478  0.64787591     0.07400
C1054       C  0.08964962  0.45770881  0.66592730    -0.19300
C1055       C  0.09134358  0.45899931  0.83858448    -0.18500
C1056       C  0.10212145  0.44830552  0.85662282     0.05600
C1057       C  0.11475720  0.43530502  0.87740965     0.07400
C1058       C  0.12785836  0.42669853  0.89512333    -0.19300
C1059       C  0.09190656  0.62162429  0.66261145    -0.18500
C1060       C  0.10163325  0.64214188  0.64388198     0.05600
C1061       C  0.11326212  0.66765985  0.62309551     0.07400
C1062       C  0.12649103  0.69003359  0.60588583    -0.19300
C1063       C  0.09246125  0.62189581  0.84153700    -0.18500
C1064       C  0.10192228  0.64210966  0.86046497     0.05600
C1065       C  0.11318562  0.66728598  0.88149292     0.07400
C1066       C  0.12614830  0.68944110  0.89889096    -0.19300
C1067       C  0.38011127  0.91181491  0.66439378    -0.18500
C1068       C  0.35918389  0.90176521  0.64601442     0.05600
C1069       C  0.33364769  0.89000653  0.62531594     0.07400
C1070       C  0.31167021  0.87692547  0.60784091    -0.19300
C1071       C  0.37934173  0.91192171  0.83995255    -0.18500
C1072       C  0.35818988  0.90158409  0.85814440     0.05600
C1073       C  0.33249983  0.88939484  0.87869631     0.07400
C1074       C  0.31053248  0.87604374  0.89612700    -0.19300
C1075       C  0.54377076  0.91211866  0.66686757    -0.18500
C1076       C  0.55489207  0.90165948  0.64900806     0.05600
C1077       C  0.56855042  0.88971078  0.62835748     0.07400
C1078       C  0.57743924  0.87708049  0.61052848    -0.19300
C1079       C  0.54349801  0.91226401  0.83871198    -0.18500
C1080       C  0.55450058  0.90148250  0.85644072     0.05600
C1081       C  0.56800998  0.88902877  0.87685258     0.07400
C1082       C  0.57686033  0.87604589  0.89444072    -0.19300
C1083       C  0.62795815  0.08856907  0.66454251    -0.18500
C1084       C  0.64888784  0.09872214  0.64617168     0.05600
C1085       C  0.67434823  0.11077085  0.62541345     0.07400
C1086       C  0.69620808  0.12407488  0.60788252    -0.19300
C1087       C  0.62822614  0.08925449  0.84030298    -0.18500
C1088       C  0.64933327  0.09935829  0.85857561     0.05600
C1089       C  0.67504251  0.11126726  0.87918311     0.07400
C1090       C  0.69711389  0.12448230  0.89660020    -0.19300
C1091       C  0.42984874  0.12361449  0.61006141    -0.18500
C1092       C  0.43879300  0.11092708  0.62783395     0.05600
C1093       C  0.45259513  0.09897921  0.64841972     0.07400
C1094       C  0.46385023  0.08857004  0.66624776    -0.19300
C1095       C  0.46389172  0.08922152  0.83775346    -0.18500
C1096       C  0.45262795  0.09978943  0.85541822     0.05600
C1097       C  0.43873697  0.11183301  0.87580735     0.07400
C1098       C  0.42971048  0.12455608  0.89345951    -0.19300
loop_ 
_geom_bond_atom_site_label_1 
_geom_bond_atom_site_label_2 
_geom_bond_distance 
_geom_bond_site_symmetry_2 
_ccdc_geom_bond_type 
N1            N2   1.324       .  A
N1            N7   1.316       .  A
N1          Mn30   2.219       .  S
N2            C9   1.355       .  A
N3            N5   1.316       .  A
N3            N4   1.316       .  A
N3          Mn19   2.178       .  S
N4           C10   1.344       .  A
N5            N6   1.324       .  A
N5          Mn30   2.221       .  S
N6           C10   1.356       .  A
N7            N8   1.316       .  A
N7          Mn19   2.177       .  S
N8            C9   1.344       .  A
C9          C522   1.431       .  S
C10         C518   1.432       .  S
N11          N17   1.316       .  A
N11          N12   1.325       .  A
N11         Mn41   2.227       .  S
N12          C20   1.357       .  A
N13          N14   1.317       .  A
N13          N15   1.316       .  A
N13         Mn19   2.182   1_545  S
N14          C21   1.345       .  A
N15          N16   1.325       .  A
N15         Mn41   2.223       .  S
N16          C21   1.356       .  A
N17          N18   1.317       .  A
N17         Mn19   2.181   1_545  S
N18          C20   1.345       .  A
Mn19        Cl43   2.522   1_565  S
C20         C545   1.438       .  S
C21         C546   1.437       .  S
N22          N23   1.325       .  A
N22          N28   1.316       .  A
N22         Mn30   2.222       .  S
N23          C31   1.356       .  A
N24          N26   1.316       .  A
N24          N25   1.317       .  A
N24         Mn42   2.182   1_565  S
N25          C32   1.346       .  A
N26          N27   1.325       .  A
N26         Mn30   2.224       .  S
N27          C32   1.356       .  A
N28          N29   1.317       .  A
N28         Mn42   2.181   1_565  S
N29          C31   1.345       .  A
Mn30        Cl43   2.571   1_565  S
C31         C526   1.436       .  S
C32         C530   1.438       .  S
N33          N34   1.325       .  A
N33          N39   1.316       .  A
N33         Mn41   2.225       .  S
N34          C44   1.356       .  A
N35          N36   1.316       .  A
N35          N37   1.316       .  A
N35         Mn42   2.177       .  S
N36          C45   1.344       .  A
N37          N38   1.324       .  A
N37         Mn41   2.221       .  S
N38          C45   1.355       .  A
N39          N40   1.316       .  A
N39         Mn42   2.176       .  S
N40          C44   1.344       .  A
Mn41        Cl43   2.571       .  S
Mn42        Cl43   2.522       .  S
C44         C538   1.434       .  S
C45         C534   1.432       .  S
N46          N47   1.325       .  A
N46          N52   1.316       .  A
N46         Mn75   2.226       .  S
N47          C54   1.357       .  A
N48          N50   1.316       .  A
N48          N49   1.318       .  A
N48         Mn64   2.187   1_655  S
N49          C55   1.347       .  A
N50          N51   1.325       .  A
N50         Mn75   2.225       .  S
N51          C55   1.357       .  A
N52          N53   1.319       .  A
N52         Mn64   2.188   1_655  S
N53          C54   1.347       .  A
C54         C490   1.442       .  S
C55         C489   1.441       .  S
N56          N62   1.317       .  A
N56          N57   1.324       .  A
N56         Mn86   2.223       .  S
N57          C65   1.356       .  A
N58          N59   1.316       .  A
N58          N60   1.317       .  A
N58         Mn64   2.178       .  S
N59          C66   1.344       .  A
N60          N61   1.324       .  A
N60         Mn86   2.222       .  S
N61          C66   1.355       .  A
N62          N63   1.316       .  A
N62         Mn64   2.179       .  S
N63          C65   1.344       .  A
Mn64        Cl88   2.526       .  S
C65         C510   1.432       .  S
C66         C514   1.432       .  S
N67          N68   1.324       .  A
N67          N73   1.317       .  A
N67         Mn75   2.222       .  S
N68          C76   1.355       .  A
N69          N71   1.317       .  A
N69          N70   1.316       .  A
N69         Mn87   2.178   1_655  S
N70          C77   1.344       .  A
N71          N72   1.324       .  A
N71         Mn75   2.222       .  S
N72          C77   1.355       .  A
N73          N74   1.316       .  A
N73         Mn87   2.178   1_655  S
N74          C76   1.344       .  A
Mn75        Cl88   2.570   1_655  S
C76         C497   1.432       .  S
C77         C498   1.432       .  S
N78          N79   1.325       .  A
N78          N84   1.316       .  A
N78         Mn86   2.227       .  S
N79          C89   1.357       .  A
N80          N81   1.318       .  A
N80          N82   1.316       .  A
N80         Mn87   2.187       .  S
N81          C90   1.347       .  A
N82          N83   1.325       .  A
N82         Mn86   2.226       .  S
N83          C90   1.357       .  A
N84          N85   1.318       .  A
N84         Mn87   2.186       .  S
N85          C89   1.347       .  A
Mn86        Cl88   2.570       .  S
Mn87        Cl88   2.526       .  S
C89         C506   1.441       .  S
C90         C505   1.441       .  S
N91          N92   1.326       .  A
N91          N97   1.316       .  A
N91        Mn120   2.228       .  S
N92          C99   1.357       .  A
N93          N95   1.317       .  A
N93          N94   1.316       .  A
N93        Mn109   2.177       .  S
N94         C100   1.344       .  A
N95          N96   1.326       .  A
N95        Mn120   2.231       .  S
N96         C100   1.357       .  A
N97          N98   1.315       .  A
N97        Mn109   2.175       .  S
N98          C99   1.343       .  A
C99         C458   1.435       .  S
C100        C454   1.437       .  S
N101        N107   1.316       .  A
N101        N102   1.326       .  A
N101       Mn131   2.231       .  S
N102        C110   1.357       .  A
N103        N104   1.317       .  A
N103        N105   1.316       .  A
N103       Mn109   2.180       .  S
N104        C111   1.345       .  A
N105        N106   1.326       .  A
N105       Mn131   2.230       .  S
N106        C111   1.357       .  A
N107        N108   1.316       .  A
N107       Mn109   2.178       .  S
N108        C110   1.344       .  A
Mn109      Cl133   2.518       .  S
C110        C478   1.438       .  S
C111        C485   1.438       .  S
N112        N113   1.326       .  A
N112        N118   1.316       .  A
N112       Mn120   2.230       .  S
N113        C121   1.357       .  A
N114        N116   1.316       .  A
N114        N115   1.317       .  A
N114       Mn132   2.179       .  S
N115        C122   1.345       .  A
N116        N117   1.326       .  A
N116       Mn120   2.231       .  S
N117        C122   1.358       .  A
N118        N119   1.317       .  A
N118       Mn132   2.180       .  S
N119        C121   1.345       .  A
Mn120      Cl133   2.579       .  S
C121        C465   1.438       .  S
C122        C466   1.439       .  S
N123        N124   1.326       .  A
N123        N129   1.317       .  A
N123       Mn131   2.230       .  S
N124        C134   1.358       .  A
N125        N126   1.316       .  A
N125        N127   1.317       .  A
N125       Mn132   2.176       .  S
N126        C135   1.344       .  A
N127        N128   1.326       .  A
N127       Mn131   2.231       .  S
N128        C135   1.358       .  A
N129        N130   1.316       .  A
N129       Mn132   2.177       .  S
N130        C134   1.344       .  A
Mn131      Cl133   2.579       .  S
Mn132      Cl133   2.517       .  S
C134        C474   1.436       .  S
C135        C473   1.437       .  S
N136        N137   1.326       .  A
N136        N142   1.316       .  A
N136       Mn165   2.231       .  S
N137        C144   1.358       .  A
N138        N140   1.316       .  A
N138        N139   1.315       .  A
N138       Mn154   2.175       .  S
N139        C145   1.344       .  A
N140        N141   1.327       .  A
N140       Mn165   2.234       .  S
N141        C145   1.358       .  A
N142        N143   1.317       .  A
N142       Mn154   2.183       .  S
N143        C144   1.346       .  A
C144        C493   1.441       .  S
C145        C469   1.438       .  S
N146        N147   1.320       .  A
N146        N701   1.313   1_554  A
N146       Mn176   2.192       .  S
N147        C155   1.350       .  A
N148        N149   1.319       .  A
N148        N699   1.313       .  A
N148       Mn154   2.184       .  S
N149        C705   1.349       .  A
N150        N151   1.319       .  A
N150        N697   1.313   1_554  A
N150       Mn176   2.185       .  S
N151        C156   1.349       .  A
N152        N153   1.320       .  A
N152        N695   1.313       .  A
N152       Mn154   2.194       .  S
N153        C704   1.350       .  A
Mn154      Cl727   2.539       .  S
C155        N702   1.350   1_554  A
C155        C450   1.432       .  S
C156        N698   1.349   1_554  A
C156        C446   1.426       .  S
N157        N158   1.325       .  A
N157        N712   1.320       .  A
N157       Mn165   2.228       .  S
N158        C715   1.354       .  A
N159        N160   1.324       .  A
N159        N710   1.319   1_554  A
N159       Mn177   2.226       .  S
N160        C716   1.354       .  A
N161        N162   1.324       .  A
N161        N708   1.319       .  A
N161       Mn165   2.227       .  S
N162        C167   1.354       .  A
N163        N164   1.325       .  A
N163        N706   1.320   1_554  A
N163       Mn177   2.228       .  S
N164        C166   1.354       .  A
Mn165      Cl727   2.557       .  S
C166        N707   1.354   1_554  A
C166        C445   1.455       .  S
C167        N709   1.354       .  A
C167        C987   1.454       .  S
N168        N169   1.317       .  A
N168        N174   1.316       .  A
N168       Mn176   2.181       .  S
N169        C179   1.345       .  A
N170        N171   1.326       .  A
N170        N172   1.316       .  A
N170       Mn177   2.230       .  S
N171        C180   1.358       .  A
N172        N173   1.315       .  A
N172       Mn176   2.177       .  S
N173        C180   1.344       .  A
N174        N175   1.326       .  A
N174       Mn177   2.232       .  S
N175        C179   1.358       .  A
Mn176      Cl178   2.539       .  S
Mn177      Cl178   2.557       .  S
Cl178      Mn703   2.539   1_554  S
Cl178      Mn714   2.557   1_554  S
C179        C486   1.440       .  S
C180        C462   1.437       .  S
N181        N182   1.325       .  A
N181        N187   1.316       .  A
N181       Mn210   2.225       .  S
N182        C189   1.357       .  A
N183        N185   1.316       .  A
N183        N184   1.314       .  A
N183       Mn199   2.171       .  S
N184        C190   1.343       .  A
N185        N186   1.325       .  A
N185       Mn210   2.225       .  S
N186        C190   1.356       .  A
N187        N188   1.315       .  A
N187       Mn199   2.171       .  S
N188        C189   1.343       .  A
C189        C541   1.433       .  S
C190        C501   1.431       .  S
N191        N192   1.319       .  A
N191        N746   1.312   1_554  A
N191       Mn221   2.186       .  S
N192        C200   1.349       .  A
N193        N194   1.319       .  A
N193        N744   1.313       .  A
N193       Mn199   2.187       .  S
N194        C750   1.349       .  A
N195        N196   1.319       .  A
N195        N742   1.313   1_554  A
N195       Mn221   2.189       .  S
N196        C201   1.350       .  A
N197        N198   1.319       .  A
N197        N740   1.312       .  A
N197       Mn199   2.185       .  S
N198        C749   1.349       .  A
Mn199      Cl772   2.536       .  S
C200        N747   1.349   1_554  A
C200        C449   1.426       .  S
C201        N743   1.349   1_554  A
C201        C437   1.428       .  S
N202        N203   1.324       .  A
N202        N757   1.318       .  A
N202       Mn210   2.224       .  S
N203        C760   1.354       .  A
N204        N205   1.324       .  A
N204        N755   1.319   1_554  A
N204       Mn222   2.226       .  S
N205        C212   1.354       .  A
N206        N207   1.324       .  A
N206        N753   1.319       .  A
N206       Mn210   2.226       .  S
N207        C761   1.354       .  A
N208        N209   1.324       .  A
N208        N751   1.318   1_554  A
N208       Mn222   2.224       .  S
N209        C211   1.354       .  A
Mn210      Cl772   2.554       .  S
C211        N752   1.354   1_554  A
C211        C433   1.453       .  S
C212        N756   1.354   1_554  A
C212        C429   1.454       .  S
N213        N214   1.315       .  A
N213        N219   1.316       .  A
N213       Mn221   2.172       .  S
N214        C224   1.344       .  A
N215        N216   1.325       .  A
N215        N217   1.316       .  A
N215       Mn222   2.225       .  S
N216        C225   1.356       .  A
N217        N218   1.315       .  A
N217       Mn221   2.173       .  S
N218        C225   1.343       .  A
N219        N220   1.324       .  A
N219       Mn222   2.221       .  S
N220        C224   1.356       .  A
Mn221      Cl223   2.537       .  S
Mn222      Cl223   2.554       .  S
Cl223      Mn748   2.536   1_554  S
Cl223      Mn759   2.554   1_554  S
C224        C537   1.431       .  S
C225        C494   1.431       .  S
N226        N227   1.324       .  A
N226        N232   1.316       .  A
N226       Mn255   2.220       .  S
N227        C234   1.355       .  A
N228        N230   1.316       .  A
N228        N229   1.315       .  A
N228       Mn244   2.172       .  S
N229        C235   1.343       .  A
N230        N231   1.325       .  A
N230       Mn255   2.225       .  S
N231        C235   1.356       .  A
N232        N233   1.315       .  A
N232       Mn244   2.171       .  S
N233        C234   1.344       .  A
C234        C525   1.430       .  S
C235        C517   1.431       .  S
N236        N237   1.319       .  A
N236        N791   1.312   1_554  A
N236       Mn266   2.185       .  S
N237        C245   1.349       .  A
N238        N239   1.319       .  A
N238        N789   1.313       .  A
N238       Mn244   2.188       .  S
N239        C795   1.350       .  A
N240        N241   1.319       .  A
N240        N787   1.313   1_554  A
N240       Mn266   2.188       .  S
N241        C246   1.350       .  A
N242        N243   1.319       .  A
N242        N785   1.312       .  A
N242       Mn244   2.184       .  S
N243        C794   1.349       .  A
Mn244      Cl817   2.537       .  S
C245        N792   1.349   1_554  A
C245        C421   1.426       .  S
C246        N788   1.350   1_554  A
C246        C422   1.427       .  S
N247        N248   1.324       .  A
N247        N802   1.318       .  A
N247       Mn255   2.222       .  S
N248        C805   1.354       .  A
N249        N250   1.325       .  A
N249        N800   1.319   1_554  A
N249       Mn267   2.228       .  S
N250        C257   1.354       .  A
N251        N252   1.325       .  A
N251        N798   1.319       .  A
N251       Mn255   2.227       .  S
N252        C806   1.354       .  A
N253        N254   1.324       .  A
N253        N796   1.318   1_554  A
N253       Mn267   2.224       .  S
N254        C256   1.354       .  A
Mn255      Cl817   2.553       .  S
C256        N797   1.354   1_554  A
C256        C441   1.453       .  S
C257        N801   1.354   1_554  A
C257        C414   1.456       .  S
N258        N259   1.315       .  A
N258        N264   1.316       .  A
N258       Mn266   2.171       .  S
N259        C269   1.343       .  A
N260        N261   1.325       .  A
N260        N262   1.316       .  A
N260       Mn267   2.225       .  S
N261        C270   1.356       .  A
N262        N263   1.315       .  A
N262       Mn266   2.173       .  S
N263        C270   1.343       .  A
N264        N265   1.325       .  A
N264       Mn267   2.223       .  S
N265        C269   1.356       .  A
Mn266      Cl268   2.537       .  S
Mn267      Cl268   2.553       .  S
Cl268      Mn793   2.537   1_554  S
Cl268      Mn804   2.553   1_554  S
C269        C521   1.431       .  S
C270        C513   1.431       .  S
N271        N272   1.319       .  A
N271        N826   1.313   1_554  A
N271       Mn300   2.186       .  S
N272        C279   1.349       .  A
N273        N274   1.320       .  A
N273        N824   1.313       .  A
N273       Mn289   2.192       .  S
N274        C829   1.350       .  A
N275        N276   1.320       .  A
N275        N822   1.313   1_554  A
N275       Mn300   2.192       .  S
N276        C280   1.350       .  A
N277        N278   1.319       .  A
N277        N820   1.313       .  A
N277       Mn289   2.185       .  S
N278        C828   1.349       .  A
C279        N827   1.349   1_554  A
C279        C425   1.427       .  S
C280        N823   1.350   1_554  A
C280        C413   1.432       .  S
N281        N287   1.316       .  A
N281        N282   1.326       .  A
N281       Mn311   2.232       .  S
N282        C290   1.358       .  A
N283        N284   1.316       .  A
N283        N285   1.316       .  A
N283       Mn289   2.178       .  S
N284        C291   1.344       .  A
N285        N286   1.326       .  A
N285       Mn311   2.228       .  S
N286        C291   1.357       .  A
N287        N288   1.314       .  A
N287       Mn289   2.172       .  S
N288        C290   1.343       .  A
Mn289      Cl862   2.537       .  S
C290        C477   1.435       .  S
C291        C533   1.437       .  S
N292        N293   1.314       .  A
N292        N298   1.317       .  A
N292       Mn300   2.172       .  S
N293        C301   1.343       .  A
N294        N296   1.316       .  A
N294        N295   1.326       .  A
N294       Mn312   2.226       .  S
N295        C302   1.357       .  A
N296        N297   1.316       .  A
N296       Mn300   2.177       .  S
N297        C302   1.344       .  A
N298        N299   1.327       .  A
N298       Mn312   2.232       .  S
N299        C301   1.358       .  A
Mn300      Cl313   2.537       .  S
C301        C470   1.435       .  S
C302        C529   1.436       .  S
N303        N304   1.325       .  A
N303        N858   1.320       .  A
N303       Mn311   2.229       .  S
N304        C314   1.354       .  A
N305        N306   1.325       .  A
N305        N856   1.319   1_554  A
N305       Mn312   2.227       .  S
N306        C315   1.354       .  A
N307        N308   1.324       .  A
N307        N854   1.319       .  A
N307       Mn311   2.227       .  S
N308        C864   1.354       .  A
N309        N310   1.324       .  A
N309        N852   1.320   1_554  A
N309       Mn312   2.228       .  S
N310        C863   1.354       .  A
Mn311      Cl862   2.558       .  S
Mn312      Cl313   2.558       .  S
Cl313      Mn838   2.537   1_554  S
Cl313      Mn860   2.558   1_554  S
C314        N859   1.354       .  A
C314        C426   1.455       .  S
C315        N857   1.354   1_554  A
C315        C442   1.454       .  S
N316        N317   1.326       .  A
N316        N322   1.316       .  A
N316       Mn345   2.230       .  S
N317        C324   1.358       .  A
N318        N320   1.316       .  A
N318        N319   1.315       .  A
N318       Mn334   2.176       .  S
N319        C325   1.344       .  A
N320        N321   1.326       .  A
N320       Mn345   2.230       .  S
N321        C325   1.357       .  A
N322        N323   1.317       .  A
N322       Mn334   2.183       .  S
N323        C324   1.345       .  A
C324        C509   1.440       .  S
C325        C482   1.437       .  S
N326        N327   1.320       .  A
N326        N881   1.313   1_554  A
N326       Mn356   2.193       .  S
N327        C335   1.350       .  A
N328        N329   1.319       .  A
N328        N879   1.313       .  A
N328       Mn334   2.185       .  S
N329        C885   1.349       .  A
N330        N331   1.319       .  A
N330        N877   1.313   1_554  A
N330       Mn356   2.185       .  S
N331        C336   1.349       .  A
N332        N333   1.320       .  A
N332        N875   1.313       .  A
N332       Mn334   2.194       .  S
N333        C884   1.351       .  A
Mn334      Cl907   2.539       .  S
C335        N882   1.351   1_554  A
C335        C410   1.433       .  S
C336        N878   1.349   1_554  A
C336        C418   1.425       .  S
N337        N338   1.324       .  A
N337        N892   1.319       .  A
N337       Mn345   2.225       .  S
N338        C895   1.354       .  A
N339        N340   1.324       .  A
N339        N890   1.319   1_554  A
N339       Mn357   2.226       .  S
N340        C896   1.354       .  A
N341        N342   1.324       .  A
N341        N888   1.319       .  A
N341       Mn345   2.227       .  S
N342        C347   1.354       .  A
N343        N344   1.324       .  A
N343        N886   1.319   1_554  A
N343       Mn357   2.225       .  S
N344        C346   1.354       .  A
Mn345      Cl907   2.556       .  S
C346        N887   1.354   1_554  A
C346        C409   1.453       .  S
C347        N889   1.354       .  A
C347        C979   1.454       .  S
N348        N349   1.317       .  A
N348        N354   1.316       .  A
N348       Mn356   2.182       .  S
N349        C359   1.345       .  A
N350        N351   1.326       .  A
N350        N352   1.316       .  A
N350       Mn357   2.231       .  S
N351        C360   1.358       .  A
N352        N353   1.315       .  A
N352       Mn356   2.175       .  S
N353        C360   1.344       .  A
N354        N355   1.326       .  A
N354       Mn357   2.228       .  S
N355        C359   1.357       .  A
Mn356      Cl358   2.539       .  S
Mn357      Cl358   2.556       .  S
Cl358      Mn883   2.539   1_554  S
Cl358      Mn894   2.556   1_554  S
C359        C502   1.440       .  S
C360        C481   1.436       .  S
N361        N362   1.319       .  A
N361        N916   1.313   1_554  A
N361       Mn390   2.188       .  S
N362        C369   1.350       .  A
N363        N364   1.320       .  A
N363        N914   1.313       .  A
N363       Mn379   2.191       .  S
N364        C919   1.350       .  A
N365        N366   1.320       .  A
N365        N912   1.313   1_554  A
N365       Mn390   2.191       .  S
N366        C370   1.350       .  A
N367        N368   1.319       .  A
N367        N910   1.313       .  A
N367       Mn379   2.186       .  S
N368        C918   1.349       .  A
C369        N917   1.349   1_554  A
C369        C434   1.427       .  S
C370        N913   1.350   1_554  A
C370        C453   1.432       .  S
N371        N377   1.317       .  A
N371        N372   1.326       .  A
N371       Mn401   2.230       .  S
N372        C380   1.357       .  A
N373        N374   1.316       .  A
N373        N375   1.316       .  A
N373       Mn379   2.176       .  S
N374        C381   1.344       .  A
N375        N376   1.326       .  A
N375       Mn401   2.226       .  S
N376        C381   1.357       .  A
N377        N378   1.314       .  A
N377       Mn379   2.173       .  S
N378        C380   1.343       .  A
Mn379      Cl952   2.538       .  S
C380        C461   1.434       .  S
C381        C549   1.436       .  S
N382        N383   1.315       .  A
N382        N388   1.317       .  A
N382       Mn390   2.175       .  S
N383        C391   1.344       .  A
N384        N386   1.316       .  A
N384        N385   1.326       .  A
N384       Mn402   2.228       .  S
N385        C392   1.357       .  A
N386        N387   1.316       .  A
N386       Mn390   2.177       .  S
N387        C392   1.344       .  A
N388        N389   1.326       .  A
N388       Mn402   2.231       .  S
N389        C391   1.358       .  A
Mn390      Cl403   2.539       .  S
C391        C457   1.435       .  S
C392        C542   1.437       .  S
N393        N394   1.325       .  A
N393        N948   1.320       .  A
N393       Mn401   2.229       .  S
N394        C953   1.354       .  A
N395        N396   1.324       .  A
N395        N946   1.319   1_554  A
N395       Mn402   2.226       .  S
N396        C405   1.354       .  A
N397        N398   1.324       .  A
N397        N944   1.319       .  A
N397       Mn401   2.224       .  S
N398        C954   1.354       .  A
N399        N400   1.325       .  A
N399        N942   1.320   1_554  A
N399       Mn402   2.229       .  S
N400        C404   1.354       .  A
Mn401      Cl952   2.557       .  S
Mn402      Cl403   2.556       .  S
Cl403      Mn928   2.538   1_554  S
Cl403      Mn950   2.557   1_554  S
C404        N943   1.354   1_554  A
C404        C417   1.455       .  S
C405        N947   1.354   1_554  A
C405        C406   1.453       .  S
C406        C407   1.216       .  T
C407        C408   1.428       .  S
C408        C409   1.216       .  T
C410        C411   1.203       .  T
C411        C412   1.408       .  S
C412        C413   1.203       .  T
C414        C415   1.217       .  T
C415        C416   1.431   1_565  S
C416        C417   1.217       .  T
C418        C419   1.199       .  T
C419        C420   1.401       .  S
C420        C421   1.199       .  T
C422        C423   1.200       .  T
C423        C424   1.403       .  S
C424        C425   1.200       .  T
C426        C976   1.217       .  T
C427        C975   1.217       .  T
C427        C428   1.430   1_565  S
C428        C429   1.217       .  T
C430        C896   1.454       .  S
C430        C431   1.216       .  T
C431        C432   1.429   1_455  S
C432        C433   1.216       .  T
C434        C435   1.200       .  T
C435        C436   1.403       .  S
C436        C437   1.200       .  T
C438        C716   1.454       .  S
C438        C439   1.216       .  T
C439        C440   1.429   1_655  S
C440        C441   1.216       .  T
C442        C443   1.217       .  T
C443        C444   1.430       .  S
C444        C445   1.217       .  T
C446        C447   1.199       .  T
C447        C448   1.402       .  S
C448        C449   1.200       .  T
C450        C451   1.203       .  T
C451        C452   1.408       .  S
C452        C453   1.203       .  T
C454        C455   1.207       .  T
C455        C456   1.414       .  S
C456        C457   1.206       .  T
C458        C459   1.206       .  T
C459        C460   1.412       .  S
C460        C461   1.205       .  T
C462        C463   1.207       .  T
C463        C464   1.415       .  S
C464        C465   1.207       .  T
C466        C467   1.208       .  T
C467        C468   1.416       .  S
C468        C469   1.208       .  T
C470        C471   1.206       .  T
C471        C472   1.414       .  S
C472        C473   1.207       .  T
C474        C475   1.207       .  T
C475        C476   1.414       .  S
C476        C477   1.206       .  T
C478        C479   1.207       .  T
C479        C480   1.415       .  S
C480        C481   1.207       .  T
C482        C483   1.207       .  T
C483        C484   1.415       .  S
C484        C485   1.208       .  T
C486        C487   1.209       .  T
C487        C488   1.418       .  S
C488        C489   1.209       .  T
C490        C491   1.209       .  T
C491        C492   1.418       .  S
C492        C493   1.209       .  T
C494        C495   1.204       .  T
C495        C496   1.410       .  S
C496        C497   1.204       .  T
C498        C499   1.204       .  T
C499        C500   1.409       .  S
C500        C501   1.204       .  T
C502        C503   1.208       .  T
C503        C504   1.417       .  S
C504        C505   1.209       .  T
C506        C507   1.209       .  T
C507        C508   1.418       .  S
C508        C509   1.209       .  T
C510        C511   1.204       .  T
C511        C512   1.410       .  S
C512        C513   1.204       .  T
C514        C515   1.204       .  T
C515        C516   1.409       .  S
C516        C517   1.203       .  T
C518        C519   1.204       .  T
C519        C520   1.410       .  S
C520        C521   1.204       .  T
C522        C523   1.203       .  T
C523        C524   1.409       .  S
C524        C525   1.203       .  T
C526        C527   1.206       .  T
C527        C528   1.413       .  S
C528        C529   1.206       .  T
C530        C531   1.207       .  T
C531        C532   1.415       .  S
C532        C533   1.207       .  T
C534        C535   1.204       .  T
C535        C536   1.409       .  S
C536        C537   1.204       .  T
C538        C539   1.205       .  T
C539        C540   1.411       .  S
C540        C541   1.205       .  T
C542        C543   1.207       .  T
C543        C544   1.415       .  S
C544        C545   1.207       .  T
C546        C547   1.207       .  T
C547        C548   1.414       .  S
C548        C549   1.206       .  T
N550        N551   1.324       .  A
N550        N556   1.316       .  A
N550       Mn579   2.219       .  S
N551        C558   1.355       .  A
N552        N554   1.316       .  A
N552        N553   1.316       .  A
N552       Mn568   2.178       .  S
N553        C559   1.344       .  A
N554        N555   1.324       .  A
N554       Mn579   2.221       .  S
N555        C559   1.356       .  A
N556        N557   1.316       .  A
N556       Mn568   2.177       .  S
N557        C558   1.344       .  A
C558       C1071   1.431       .  S
C559       C1067   1.432       .  S
N560        N566   1.316       .  A
N560        N561   1.325       .  A
N560       Mn590   2.227       .  S
N561        C569   1.357       .  A
N562        N563   1.317       .  A
N562        N564   1.316       .  A
N562       Mn568   2.182   1_545  S
N563        C570   1.345       .  A
N564        N565   1.325       .  A
N564       Mn590   2.223       .  S
N565        C570   1.356       .  A
N566        N567   1.317       .  A
N566       Mn568   2.181   1_545  S
N567        C569   1.345       .  A
Mn568      Cl592   2.522   1_565  S
C569       C1094   1.438       .  S
C570       C1095   1.437       .  S
N571        N572   1.325       .  A
N571        N577   1.316       .  A
N571       Mn579   2.222       .  S
N572        C580   1.356       .  A
N573        N575   1.316       .  A
N573        N574   1.317       .  A
N573       Mn591   2.182   1_565  S
N574        C581   1.346       .  A
N575        N576   1.325       .  A
N575       Mn579   2.224       .  S
N576        C581   1.356       .  A
N577        N578   1.317       .  A
N577       Mn591   2.181   1_565  S
N578        C580   1.345       .  A
Mn579      Cl592   2.571   1_565  S
C580       C1075   1.436       .  S
C581       C1079   1.438       .  S
N582        N583   1.325       .  A
N582        N588   1.316       .  A
N582       Mn590   2.225       .  S
N583        C593   1.356       .  A
N584        N585   1.316       .  A
N584        N586   1.316       .  A
N584       Mn591   2.177       .  S
N585        C594   1.344       .  A
N586        N587   1.324       .  A
N586       Mn590   2.221       .  S
N587        C594   1.355       .  A
N588        N589   1.316       .  A
N588       Mn591   2.176       .  S
N589        C593   1.344       .  A
Mn590      Cl592   2.571       .  S
Mn591      Cl592   2.522       .  S
C593       C1087   1.434       .  S
C594       C1083   1.432       .  S
N595        N596   1.325       .  A
N595        N601   1.316       .  A
N595       Mn624   2.226       .  S
N596        C603   1.357       .  A
N597        N599   1.316       .  A
N597        N598   1.318       .  A
N597       Mn613   2.187   1_655  S
N598        C604   1.347       .  A
N599        N600   1.325       .  A
N599       Mn624   2.225       .  S
N600        C604   1.357       .  A
N601        N602   1.319       .  A
N601       Mn613   2.188   1_655  S
N602        C603   1.347       .  A
C603       C1039   1.442       .  S
C604       C1038   1.441       .  S
N605        N611   1.317       .  A
N605        N606   1.324       .  A
N605       Mn635   2.223       .  S
N606        C614   1.356       .  A
N607        N608   1.316       .  A
N607        N609   1.317       .  A
N607       Mn613   2.178       .  S
N608        C615   1.344       .  A
N609        N610   1.324       .  A
N609       Mn635   2.222       .  S
N610        C615   1.355       .  A
N611        N612   1.316       .  A
N611       Mn613   2.179       .  S
N612        C614   1.344       .  A
Mn613      Cl637   2.526       .  S
C614       C1059   1.432       .  S
C615       C1063   1.432       .  S
N616        N617   1.324       .  A
N616        N622   1.317       .  A
N616       Mn624   2.222       .  S
N617        C625   1.355       .  A
N618        N620   1.317       .  A
N618        N619   1.316       .  A
N618       Mn636   2.178   1_655  S
N619        C626   1.344       .  A
N620        N621   1.324       .  A
N620       Mn624   2.222       .  S
N621        C626   1.355       .  A
N622        N623   1.316       .  A
N622       Mn636   2.178   1_655  S
N623        C625   1.344       .  A
Mn624      Cl637   2.570   1_655  S
C625       C1046   1.432       .  S
C626       C1047   1.432       .  S
N627        N628   1.325       .  A
N627        N633   1.316       .  A
N627       Mn635   2.227       .  S
N628        C638   1.357       .  A
N629        N630   1.318       .  A
N629        N631   1.316       .  A
N629       Mn636   2.187       .  S
N630        C639   1.347       .  A
N631        N632   1.325       .  A
N631       Mn635   2.226       .  S
N632        C639   1.357       .  A
N633        N634   1.318       .  A
N633       Mn636   2.186       .  S
N634        C638   1.347       .  A
Mn635      Cl637   2.570       .  S
Mn636      Cl637   2.526       .  S
C638       C1055   1.441       .  S
C639       C1054   1.441       .  S
N640        N641   1.326       .  A
N640        N646   1.316       .  A
N640       Mn669   2.228       .  S
N641        C648   1.357       .  A
N642        N644   1.317       .  A
N642        N643   1.316       .  A
N642       Mn658   2.177       .  S
N643        C649   1.344       .  A
N644        N645   1.326       .  A
N644       Mn669   2.231       .  S
N645        C649   1.357       .  A
N646        N647   1.315       .  A
N646       Mn658   2.175       .  S
N647        C648   1.343       .  A
C648       C1007   1.435       .  S
C649       C1003   1.437       .  S
N650        N656   1.316       .  A
N650        N651   1.326       .  A
N650       Mn680   2.231       .  S
N651        C659   1.357       .  A
N652        N653   1.317       .  A
N652        N654   1.316       .  A
N652       Mn658   2.180       .  S
N653        C660   1.345       .  A
N654        N655   1.326       .  A
N654       Mn680   2.230       .  S
N655        C660   1.357       .  A
N656        N657   1.316       .  A
N656       Mn658   2.178       .  S
N657        C659   1.344       .  A
Mn658      Cl682   2.518       .  S
C659       C1027   1.438       .  S
C660       C1034   1.438       .  S
N661        N662   1.326       .  A
N661        N667   1.316       .  A
N661       Mn669   2.230       .  S
N662        C670   1.357       .  A
N663        N665   1.316       .  A
N663        N664   1.317       .  A
N663       Mn681   2.179       .  S
N664        C671   1.345       .  A
N665        N666   1.326       .  A
N665       Mn669   2.231       .  S
N666        C671   1.358       .  A
N667        N668   1.317       .  A
N667       Mn681   2.180       .  S
N668        C670   1.345       .  A
Mn669      Cl682   2.579       .  S
C670       C1014   1.438       .  S
C671       C1015   1.439       .  S
N672        N673   1.326       .  A
N672        N678   1.317       .  A
N672       Mn680   2.230       .  S
N673        C683   1.358       .  A
N674        N675   1.316       .  A
N674        N676   1.317       .  A
N674       Mn681   2.176       .  S
N675        C684   1.344       .  A
N676        N677   1.326       .  A
N676       Mn680   2.231       .  S
N677        C684   1.358       .  A
N678        N679   1.316       .  A
N678       Mn681   2.177       .  S
N679        C683   1.344       .  A
Mn680      Cl682   2.579       .  S
Mn681      Cl682   2.517       .  S
C683       C1023   1.436       .  S
C684       C1022   1.437       .  S
N685        N686   1.326       .  A
N685        N691   1.316       .  A
N685       Mn714   2.231       .  S
N686        C693   1.358       .  A
N687        N689   1.316       .  A
N687        N688   1.315       .  A
N687       Mn703   2.175       .  S
N688        C694   1.344       .  A
N689        N690   1.327       .  A
N689       Mn714   2.234       .  S
N690        C694   1.358       .  A
N691        N692   1.317       .  A
N691       Mn703   2.183       .  S
N692        C693   1.346       .  A
C693       C1042   1.441       .  S
C694       C1018   1.438       .  S
N695        N696   1.320       .  A
N695       Mn725   2.192       .  S
N696        C704   1.350       .  A
N697        N698   1.319       .  A
N697       Mn703   2.184       .  S
N699        N700   1.319       .  A
N699       Mn725   2.185       .  S
N700        C705   1.349       .  A
N701        N702   1.320       .  A
N701       Mn703   2.194       .  S
C704        C999   1.432       .  S
C705        C995   1.426       .  S
N706        N707   1.325       .  A
N706       Mn714   2.228       .  S
N708        N709   1.324       .  A
N708       Mn726   2.226       .  S
N710        N711   1.324       .  A
N710       Mn714   2.227       .  S
N711        C716   1.354   1_556  A
N712        N713   1.325       .  A
N712       Mn726   2.228       .  S
N713        C715   1.354       .  A
C715        C994   1.455       .  S
N717        N718   1.317       .  A
N717        N723   1.316       .  A
N717       Mn725   2.181       .  S
N718        C728   1.345       .  A
N719        N720   1.326       .  A
N719        N721   1.316       .  A
N719       Mn726   2.230       .  S
N720        C729   1.358       .  A
N721        N722   1.315       .  A
N721       Mn725   2.177       .  S
N722        C729   1.344       .  A
N723        N724   1.326       .  A
N723       Mn726   2.232       .  S
N724        C728   1.358       .  A
Mn725      Cl727   2.539       .  S
Mn726      Cl727   2.557       .  S
C728       C1035   1.440       .  S
C729       C1011   1.437       .  S
N730        N731   1.325       .  A
N730        N736   1.316       .  A
N730       Mn759   2.225       .  S
N731        C738   1.357       .  A
N732        N734   1.316       .  A
N732        N733   1.314       .  A
N732       Mn748   2.171       .  S
N733        C739   1.343       .  A
N734        N735   1.325       .  A
N734       Mn759   2.225       .  S
N735        C739   1.356       .  A
N736        N737   1.315       .  A
N736       Mn748   2.171       .  S
N737        C738   1.343       .  A
C738       C1090   1.433       .  S
C739       C1050   1.431       .  S
N740        N741   1.319       .  A
N740       Mn770   2.186       .  S
N741        C749   1.349       .  A
N742        N743   1.319       .  A
N742       Mn748   2.187       .  S
N744        N745   1.319       .  A
N744       Mn770   2.189       .  S
N745        C750   1.350       .  A
N746        N747   1.319       .  A
N746       Mn748   2.185       .  S
C749        C998   1.426       .  S
C750        C986   1.428       .  S
N751        N752   1.324       .  A
N751       Mn759   2.224       .  S
N753        N754   1.324       .  A
N753       Mn771   2.226       .  S
N754        C761   1.354       .  A
N755        N756   1.324       .  A
N755       Mn759   2.226       .  S
N757        N758   1.324       .  A
N757       Mn771   2.224       .  S
N758        C760   1.354       .  A
C760        C982   1.453       .  S
C761        C978   1.454       .  S
N762        N763   1.315       .  A
N762        N768   1.316       .  A
N762       Mn770   2.172       .  S
N763        C773   1.344       .  A
N764        N765   1.325       .  A
N764        N766   1.316       .  A
N764       Mn771   2.225       .  S
N765        C774   1.356       .  A
N766        N767   1.315       .  A
N766       Mn770   2.173       .  S
N767        C774   1.343       .  A
N768        N769   1.324       .  A
N768       Mn771   2.221       .  S
N769        C773   1.356       .  A
Mn770      Cl772   2.537       .  S
Mn771      Cl772   2.554       .  S
C773       C1086   1.431       .  S
C774       C1043   1.431       .  S
N775        N776   1.324       .  A
N775        N781   1.316       .  A
N775       Mn804   2.220       .  S
N776        C783   1.355       .  A
N777        N779   1.316       .  A
N777        N778   1.315       .  A
N777       Mn793   2.172       .  S
N778        C784   1.343       .  A
N779        N780   1.325       .  A
N779       Mn804   2.225       .  S
N780        C784   1.356       .  A
N781        N782   1.315       .  A
N781       Mn793   2.171       .  S
N782        C783   1.344       .  A
C783       C1074   1.430       .  S
C784       C1066   1.431       .  S
N785        N786   1.319       .  A
N785       Mn815   2.185       .  S
N786        C794   1.349       .  A
N787        N788   1.319       .  A
N787       Mn793   2.188       .  S
N789        N790   1.319       .  A
N789       Mn815   2.188       .  S
N790        C795   1.350       .  A
N791        N792   1.319       .  A
N791       Mn793   2.184       .  S
C794        C970   1.426       .  S
C795        C971   1.427       .  S
N796        N797   1.324       .  A
N796       Mn804   2.222       .  S
N798        N799   1.325       .  A
N798       Mn816   2.228       .  S
N799        C806   1.354       .  A
N800        N801   1.325       .  A
N800       Mn804   2.227       .  S
N802        N803   1.324       .  A
N802       Mn816   2.224       .  S
N803        C805   1.354       .  A
C805        C990   1.453       .  S
C806        C963   1.456       .  S
N807        N808   1.315       .  A
N807        N813   1.316       .  A
N807       Mn815   2.171       .  S
N808        C818   1.343       .  A
N809        N810   1.325       .  A
N809        N811   1.316       .  A
N809       Mn816   2.225       .  S
N810        C819   1.356       .  A
N811        N812   1.315       .  A
N811       Mn815   2.173       .  S
N812        C819   1.343       .  A
N813        N814   1.325       .  A
N813       Mn816   2.223       .  S
N814        C818   1.356       .  A
Mn815      Cl817   2.537       .  S
Mn816      Cl817   2.553       .  S
C818       C1070   1.431       .  S
C819       C1062   1.431       .  S
N820        N821   1.319       .  A
N820       Mn849   2.186       .  S
N821        C828   1.349       .  A
N822        N823   1.320       .  A
N822       Mn838   2.192       .  S
N824        N825   1.320       .  A
N824       Mn849   2.192       .  S
N825        C829   1.350       .  A
N826        N827   1.319       .  A
N826       Mn838   2.185       .  S
C828        C974   1.427       .  S
C829        C962   1.432       .  S
N830        N836   1.316       .  A
N830        N831   1.326       .  A
N830       Mn860   2.232       .  S
N831        C839   1.358       .  A
N832        N833   1.316       .  A
N832        N834   1.316       .  A
N832       Mn838   2.178       .  S
N833        C840   1.344       .  A
N834        N835   1.326       .  A
N834       Mn860   2.228       .  S
N835        C840   1.357       .  A
N836        N837   1.314       .  A
N836       Mn838   2.172       .  S
N837        C839   1.343       .  A
C839       C1026   1.435       .  S
C840       C1082   1.437       .  S
N841        N842   1.314       .  A
N841        N847   1.317       .  A
N841       Mn849   2.172       .  S
N842        C850   1.343       .  A
N843        N845   1.316       .  A
N843        N844   1.326       .  A
N843       Mn861   2.226       .  S
N844        C851   1.357       .  A
N845        N846   1.316       .  A
N845       Mn849   2.177       .  S
N846        C851   1.344       .  A
N847        N848   1.327       .  A
N847       Mn861   2.232       .  S
N848        C850   1.358       .  A
Mn849      Cl862   2.537       .  S
C850       C1019   1.435       .  S
C851       C1078   1.436       .  S
N852        N853   1.325       .  A
N852       Mn860   2.229       .  S
N853        C863   1.354   1_556  A
N854        N855   1.325       .  A
N854       Mn861   2.227       .  S
N855        C864   1.354       .  A
N856        N857   1.324       .  A
N856       Mn860   2.227       .  S
N858        N859   1.324       .  A
N858       Mn861   2.228       .  S
Mn861      Cl862   2.558       .  S
C863        C975   1.455       .  S
C864        C991   1.454       .  S
N865        N866   1.326       .  A
N865        N871   1.316       .  A
N865       Mn894   2.230       .  S
N866        C873   1.358       .  A
N867        N869   1.316       .  A
N867        N868   1.315       .  A
N867       Mn883   2.176       .  S
N868        C874   1.344       .  A
N869        N870   1.326       .  A
N869       Mn894   2.230       .  S
N870        C874   1.357       .  A
N871        N872   1.317       .  A
N871       Mn883   2.183       .  S
N872        C873   1.345       .  A
C873       C1058   1.440       .  S
C874       C1031   1.437       .  S
N875        N876   1.320       .  A
N875       Mn905   2.193       .  S
N876        C884   1.350       .  A
N877        N878   1.319       .  A
N877       Mn883   2.185       .  S
N879        N880   1.319       .  A
N879       Mn905   2.185       .  S
N880        C885   1.349       .  A
N881        N882   1.320       .  A
N881       Mn883   2.194       .  S
C884        C959   1.433       .  S
C885        C967   1.425       .  S
N886        N887   1.324       .  A
N886       Mn894   2.225       .  S
N888        N889   1.324       .  A
N888       Mn906   2.226       .  S
N890        N891   1.324       .  A
N890       Mn894   2.227       .  S
N891        C896   1.354   1_556  A
N892        N893   1.324       .  A
N892       Mn906   2.225       .  S
N893        C895   1.354       .  A
C895        C958   1.453       .  S
N897        N898   1.317       .  A
N897        N903   1.316       .  A
N897       Mn905   2.182       .  S
N898        C908   1.345       .  A
N899        N900   1.326       .  A
N899        N901   1.316       .  A
N899       Mn906   2.231       .  S
N900        C909   1.358       .  A
N901        N902   1.315       .  A
N901       Mn905   2.175       .  S
N902        C909   1.344       .  A
N903        N904   1.326       .  A
N903       Mn906   2.228       .  S
N904        C908   1.357       .  A
Mn905      Cl907   2.539       .  S
Mn906      Cl907   2.556       .  S
C908       C1051   1.440       .  S
C909       C1030   1.436       .  S
N910        N911   1.319       .  A
N910       Mn939   2.188       .  S
N911        C918   1.350       .  A
N912        N913   1.320       .  A
N912       Mn928   2.191       .  S
N914        N915   1.320       .  A
N914       Mn939   2.191       .  S
N915        C919   1.350       .  A
N916        N917   1.319       .  A
N916       Mn928   2.186       .  S
C918        C983   1.427       .  S
C919       C1002   1.432       .  S
N920        N926   1.317       .  A
N920        N921   1.326       .  A
N920       Mn950   2.230       .  S
N921        C929   1.357       .  A
N922        N923   1.316       .  A
N922        N924   1.316       .  A
N922       Mn928   2.176       .  S
N923        C930   1.344       .  A
N924        N925   1.326       .  A
N924       Mn950   2.226       .  S
N925        C930   1.357       .  A
N926        N927   1.314       .  A
N926       Mn928   2.173       .  S
N927        C929   1.343       .  A
C929       C1010   1.434       .  S
C930       C1098   1.436       .  S
N931        N932   1.315       .  A
N931        N937   1.317       .  A
N931       Mn939   2.175       .  S
N932        C940   1.344       .  A
N933        N935   1.316       .  A
N933        N934   1.326       .  A
N933       Mn951   2.228       .  S
N934        C941   1.357       .  A
N935        N936   1.316       .  A
N935       Mn939   2.177       .  S
N936        C941   1.344       .  A
N937        N938   1.326       .  A
N937       Mn951   2.231       .  S
N938        C940   1.358       .  A
Mn939      Cl952   2.539       .  S
C940       C1006   1.435       .  S
C941       C1091   1.437       .  S
N942        N943   1.325       .  A
N942       Mn950   2.229       .  S
N944        N945   1.324       .  A
N944       Mn951   2.226       .  S
N945        C954   1.354       .  A
N946        N947   1.324       .  A
N946       Mn950   2.224       .  S
N948        N949   1.325       .  A
N948       Mn951   2.229       .  S
N949        C953   1.354       .  A
Mn951      Cl952   2.556       .  S
C953        C966   1.455       .  S
C954        C955   1.453       .  S
C955        C956   1.216       .  T
C956        C957   1.428       .  S
C957        C958   1.216       .  T
C959        C960   1.203       .  T
C960        C961   1.408       .  S
C961        C962   1.203       .  T
C963        C964   1.217       .  T
C964        C965   1.431   1_565  S
C965        C966   1.217       .  T
C967        C968   1.199       .  T
C968        C969   1.401       .  S
C969        C970   1.199       .  T
C971        C972   1.200       .  T
C972        C973   1.403       .  S
C973        C974   1.200       .  T
C976        C977   1.430   1_565  S
C977        C978   1.217       .  T
C979        C980   1.216       .  T
C980        C981   1.429   1_455  S
C981        C982   1.216       .  T
C983        C984   1.200       .  T
C984        C985   1.403       .  S
C985        C986   1.200       .  T
C987        C988   1.216       .  T
C988        C989   1.429   1_655  S
C989        C990   1.216       .  T
C991        C992   1.217       .  T
C992        C993   1.430       .  S
C993        C994   1.217       .  T
C995        C996   1.199       .  T
C996        C997   1.402       .  S
C997        C998   1.200       .  T
C999       C1000   1.203       .  T
C1000      C1001   1.408       .  S
C1001      C1002   1.203       .  T
C1003      C1004   1.207       .  T
C1004      C1005   1.414       .  S
C1005      C1006   1.206       .  T
C1007      C1008   1.206       .  T
C1008      C1009   1.412       .  S
C1009      C1010   1.205       .  T
C1011      C1012   1.207       .  T
C1012      C1013   1.415       .  S
C1013      C1014   1.207       .  T
C1015      C1016   1.208       .  T
C1016      C1017   1.416       .  S
C1017      C1018   1.208       .  T
C1019      C1020   1.206       .  T
C1020      C1021   1.414       .  S
C1021      C1022   1.207       .  T
C1023      C1024   1.207       .  T
C1024      C1025   1.414       .  S
C1025      C1026   1.206       .  T
C1027      C1028   1.207       .  T
C1028      C1029   1.415       .  S
C1029      C1030   1.207       .  T
C1031      C1032   1.207       .  T
C1032      C1033   1.415       .  S
C1033      C1034   1.208       .  T
C1035      C1036   1.209       .  T
C1036      C1037   1.418       .  S
C1037      C1038   1.209       .  T
C1039      C1040   1.209       .  T
C1040      C1041   1.418       .  S
C1041      C1042   1.209       .  T
C1043      C1044   1.204       .  T
C1044      C1045   1.410       .  S
C1045      C1046   1.204       .  T
C1047      C1048   1.204       .  T
C1048      C1049   1.409       .  S
C1049      C1050   1.204       .  T
C1051      C1052   1.208       .  T
C1052      C1053   1.417       .  S
C1053      C1054   1.209       .  T
C1055      C1056   1.209       .  T
C1056      C1057   1.418       .  S
C1057      C1058   1.209       .  T
C1059      C1060   1.204       .  T
C1060      C1061   1.410       .  S
C1061      C1062   1.204       .  T
C1063      C1064   1.204       .  T
C1064      C1065   1.409       .  S
C1065      C1066   1.203       .  T
C1067      C1068   1.204       .  T
C1068      C1069   1.410       .  S
C1069      C1070   1.204       .  T
C1071      C1072   1.203       .  T
C1072      C1073   1.409       .  S
C1073      C1074   1.203       .  T
C1075      C1076   1.206       .  T
C1076      C1077   1.413       .  S
C1077      C1078   1.206       .  T
C1079      C1080   1.207       .  T
C1080      C1081   1.415       .  S
C1081      C1082   1.207       .  T
C1083      C1084   1.204       .  T
C1084      C1085   1.409       .  S
C1085      C1086   1.204       .  T
C1087      C1088   1.205       .  T
C1088      C1089   1.411       .  S
C1089      C1090   1.205       .  T
C1091      C1092   1.207       .  T
C1092      C1093   1.415       .  S
C1093      C1094   1.207       .  T
C1095      C1096   1.207       .  T
C1096      C1097   1.414       .  S
C1097      C1098   1.206       .  T
