geometry optimzed in LAMMPS
_audit_creation_date              2020-11-30 
_audit_creation_method            'lammps2cif' 
_symmetry_space_group_name_H-M    'P1' 
_symmetry_Int_Tables_number       1 
_symmetry_cell_setting            triclinic 
loop_ 
_symmetry_equiv_pos_as_xyz 
  x,y,z 
_cell_length_a                    26.97817858 
_cell_length_b                    43.28652121001041 
_cell_length_c                    34.01984728917196 
_cell_angle_alpha                 89.9995395529445 
_cell_angle_beta                  82.31949776418892 
_cell_angle_gamma                 89.99996025108486 
loop_ 
_atom_site_label 
_atom_site_type_symbol 
_atom_site_fract_x 
_atom_site_fract_y 
_atom_site_fract_z 
_atom_site_charge 
O1          O  0.38490874  0.02801175  0.04714944    -0.77300
O2          O  0.05857183  0.43907816  0.98409272    -0.61900
O3          O  0.48380746  0.00505743  0.03610387    -1.08600
C4          C  0.00567258  0.04963957  0.40682420     1.09600
O5          O  0.11474632  0.47092355  0.45235563    -0.75200
O6          O  0.10291006  0.03226832  0.45687898    -0.62700
Ni7        Ni  0.42412153  0.99817608  0.07205212     1.34900
C8          C  0.08445521  0.05080513  0.48371472     0.88400
O9          O  0.02183012  0.44852481  0.05935325    -0.75700
O10         O  0.45713131  0.46769745  0.10084825    -0.86000
C11         C  0.10293508  0.44527732  0.96926221     0.87900
O12         O  0.39672672  0.46666496  0.04258253    -0.64200
O13         O  0.04249804  0.03119476  0.39862234    -0.83500
C14         C  0.41518746  0.44812392  0.01575348     0.88800
C15         C  0.49396734  0.44926003  0.09264475     1.10300
H16         H  0.99318712  0.48343620  0.44809076     0.42100
O17         O  0.01584292  0.49386542  0.46338879    -1.06100
O18         O  0.03853135  0.05130990  0.49829161    -0.62800
Ni19       Ni  0.48030160  0.02803963  0.48854356     1.26300
O20         O  0.46111928  0.44761023  0.00119634    -0.63000
O21         O  0.47782998  0.05039562  0.44012614    -0.75300
C22         C  0.39671873  0.05365053  0.53022029     0.88200
O23         O  0.44108332  0.05984746  0.51539114    -0.62500
Ni24       Ni  0.07552390  0.50073915  0.42743543     1.27400
Ni25       Ni  0.01935122  0.47088338  0.01094477     1.26100
H26         H  0.50646457  0.01548868  0.05140696     0.42700
C27         C  0.00259405  0.09423387  0.27326040     0.49100
H28         H  0.00258673  0.06853787  0.27344241     0.00100
C29         C  0.50265253  0.15438286  0.27312082     0.49100
H30         H  0.50269848  0.18007912  0.27318500     0.00100
C31         C  0.49359312  0.10850834  0.31500626    -0.13600
C32         C  0.05237271  0.10845694  0.25453292    -0.13400
C33         C  0.46252949  0.10855417  0.25096478    -0.13800
C34         C  0.99362656  0.14022550  0.31493279    -0.13700
C35         C  0.05240108  0.14008466  0.25445805    -0.13300
C36         C  0.46255920  0.14002232  0.25089042    -0.13600
O37         O  0.11480724  0.27801316  0.45207790    -0.77300
O38         O  0.44114632  0.18907677  0.51513142    -0.61900
O39         O  0.01590935  0.25505806  0.46312313    -1.08600
C40         C  0.49404189  0.29963642  0.09240417     1.09600
O41         O  0.38497100  0.22092035  0.04687007    -0.75200
O42         O  0.39680524  0.28226534  0.04234880    -0.62700
Ni43       Ni  0.07559534  0.24817772  0.42717466     1.34900
C44         C  0.41525960  0.30080348  0.01551412     0.88400
O45         O  0.47788752  0.19852618  0.43987181    -0.75700
O46         O  0.04258656  0.21769946  0.39837754    -0.86000
C47         C  0.39678283  0.19527515  0.52996166     0.87900
O48         O  0.10299079  0.21666619  0.45664393    -0.64200
O49         O  0.45721730  0.28119076  0.10060530    -0.83500
C50         C  0.08453023  0.19812451  0.48347261     0.88800
C51         C  0.00575030  0.19926206  0.40658042     1.10300
H52         H  0.50653068  0.23343376  0.05113598     0.42100
O53         O  0.48387410  0.24386356  0.03583794    -1.06100
O54         O  0.46118356  0.30130912  0.00093726    -0.62800
Ni55       Ni  0.01941437  0.27803894  0.01068419     1.26300
O56         O  0.03859827  0.19760996  0.49802917    -0.63000
O57         O  0.02188499  0.30039372  0.05910237    -0.75300
C58         C  0.10299678  0.30365171  0.96900718     0.88200
O59         O  0.05863213  0.30984782  0.98383725    -0.62500
Ni60       Ni  0.42419266  0.25073555  0.07179134     1.27400
Ni61       Ni  0.48036619  0.22088313  0.48828097     1.26100
H62         H  0.99325252  0.26548947  0.44782055     0.42700
C63         C  0.99704848  0.40438135  0.22610530     0.49100
H64         H  0.99700384  0.43007760  0.22603935     0.00100
C65         C  0.49710406  0.34423233  0.22596949     0.49100
H66         H  0.49711025  0.31853634  0.22578901     0.00100
C67         C  0.50607780  0.39022285  0.18429432    -0.13600
C68         C  0.03713870  0.39002076  0.24833907    -0.13400
C69         C  0.44729829  0.39008439  0.24476669    -0.13800
C70         C  0.00610952  0.35850566  0.18422276    -0.13700
C71         C  0.03716688  0.35855253  0.24826667    -0.13300
C72         C  0.44732511  0.35845663  0.24469388    -0.13600
O73         O  0.36473614  0.02780116  0.20235674    -0.77300
O74         O  0.19107500  0.43887361  0.26538988    -0.61900
O75         O  0.26583281  0.00485800  0.21338873    -1.08600
C76         C  0.24395724  0.04945929  0.34264660     1.09600
O77         O  0.13489983  0.47070840  0.29714900    -0.75200
O78         O  0.14671651  0.03205547  0.29258337    -0.62700
Ni79       Ni  0.32551457  0.99798589  0.17743563     1.34900
C80         C  0.16517696  0.05059704  0.26575443     0.88400
O81         O  0.22782232  0.44832751  0.19012462    -0.75700
O82         O  0.29249019  0.46753052  0.14862193    -0.86000
C83         C  0.14671034  0.44506983  0.28021986     0.87900
O84         O  0.35290208  0.46645627  0.20687838    -0.64200
O85         O  0.20712104  0.03102186  0.35084963    -0.83500
C86         C  0.33444767  0.44791808  0.23371295     0.88800
C87         C  0.25566557  0.44908488  0.15682294     1.10300
H88         H  0.25645403  0.48323243  0.30140577     0.42100
O89         O  0.23379742  0.49366361  0.28610346    -1.06100
O90         O  0.21110880  0.05111148  0.25119760    -0.62800
Ni91       Ni  0.26934078  0.02783839  0.26094568     1.26300
O92         O  0.28852365  0.44741237  0.24828967    -0.63000
O93         O  0.27181973  0.05019522  0.30935503    -0.75300
C94         C  0.35292436  0.05344637  0.21926523     0.88200
O95         O  0.30856083  0.05964471  0.23409538    -0.62500
Ni96       Ni  0.17411180  0.50054377  0.32205237     1.27400
Ni97       Ni  0.23029264  0.47068250  0.23854261     1.26100
H98         H  0.24317602  0.01528790  0.19809054     0.42700
C99         C  0.25265872  0.34434019  0.02312172     0.49100
H100        H  0.25270330  0.31864394  0.02318766     0.00100
C101        C  0.25260309  0.40448920  0.02325761     0.49100
H102        H  0.25259686  0.43018520  0.02343815     0.00100
C103        C  0.24362958  0.35849870  0.06493270    -0.13600
C104        C  0.30240895  0.35863718  0.00446034    -0.13400
C105        C  0.21256848  0.35870080  0.00088796    -0.13800
C106        C  0.24359773  0.39021586  0.06500429    -0.13700
C107        C  0.30238204  0.39026492  0.00453320    -0.13300
C108        C  0.21254021  0.39016900  0.00096044    -0.13600
O109        O  0.13496104  0.27779795  0.29687129    -0.77300
O110        O  0.30862373  0.18887410  0.23383567    -0.61900
O111        O  0.23386434  0.25485615  0.28583786    -1.08600
C112        C  0.25574018  0.29946170  0.15658222     1.09600
O113        O  0.36479843  0.22070975  0.20207729    -0.75200
O114        O  0.35298038  0.28205663  0.20664482    -0.62700
Ni115      Ni  0.17418364  0.24798253  0.32179157     1.34900
C116        C  0.33451945  0.30059770  0.23347372     0.88400
O117        O  0.27187722  0.19832595  0.30910067    -0.75700
O118        O  0.20720952  0.21752696  0.35060468    -0.86000
C119        C  0.35298836  0.19507092  0.21900636     0.87900
O120        O  0.14679695  0.21645328  0.29234839    -0.64200
O121        O  0.29257632  0.28102438  0.14837885    -0.83500
C122        C  0.16525166  0.19791655  0.26551251     0.88800
C123        C  0.24403482  0.19908203  0.34240272     1.10300
H124        H  0.24324258  0.23323275  0.19781958     0.42100
O125        O  0.26589961  0.24366409  0.21312278    -1.06100
O126        O  0.28858758  0.30111140  0.24803066    -0.62800
Ni127      Ni  0.23035586  0.27783818  0.23828192     1.26300
O128        O  0.21117546  0.19741179  0.25093542    -0.63000
O129        O  0.22787719  0.30019689  0.18987361    -0.75300
C130        C  0.14677202  0.30344413  0.27996455     0.88200
O131        O  0.19113523  0.30964337  0.26513407    -0.62500
Ni132      Ni  0.32558578  0.25054563  0.17717483     1.27400
Ni133      Ni  0.26940542  0.22068194  0.26068313     1.26100
H134        H  0.25652038  0.26528536  0.30113578     0.42700
C135        C  0.24711318  0.15448768  0.47596666     0.49100
H136        H  0.24712056  0.18018368  0.47578463     0.00100
C137        C  0.24705457  0.09433869  0.47610625     0.49100
H138        H  0.24700855  0.06864244  0.47604214     0.00100
C139        C  0.25611420  0.14021322  0.43422078    -0.13600
C140        C  0.28717763  0.14016739  0.49826231    -0.13400
C141        C  0.19733451  0.14026465  0.49469417    -0.13800
C142        C  0.25608067  0.10849604  0.43429423    -0.13700
C143        C  0.28714780  0.10869922  0.49833673    -0.13300
C144        C  0.19730607  0.10863690  0.49476900    -0.13600
C145        C  0.25361426  0.17729691  0.37249259    -0.09600
C146        C  0.25717040  0.15934220  0.39918259    -0.11200
C147        C  0.24617536  0.32127228  0.12651786    -0.09600
C148        C  0.24260453  0.33927737  0.09988529    -0.11200
C149        C  0.24608833  0.42730041  0.12673224    -0.09600
C150        C  0.24253579  0.40934575  0.10004188    -0.11200
C151        C  0.25709812  0.08927416  0.39934303    -0.09600
C152        C  0.25352314  0.07126922  0.37271129    -0.11200
C153        C  0.07477469  0.34025917  0.26376617    -0.09600
C154        C  0.10770887  0.32443309  0.27351911    -0.11200
C155        C  0.36820211  0.32272824  0.24659432    -0.09600
C156        C  0.40235028  0.34003222  0.24989427    -0.11200
C157        C  0.40229564  0.40847737  0.25005295    -0.09600
C158        C  0.36812843  0.42577793  0.24680824    -0.11200
C159        C  0.07471864  0.40828728  0.26392191    -0.09600
C160        C  0.10764367  0.42409286  0.27373386    -0.11200
C161        C  0.11821323  0.17599427  0.49659366    -0.09600
C162        C  0.15236060  0.15868983  0.49989424    -0.11200
C163        C  0.32478667  0.15846046  0.51376046    -0.09600
C164        C  0.35772045  0.17428627  0.52351434    -0.11200
C165        C  0.14206338  0.32462873  0.97549326    -0.09600
C166        C  0.17498846  0.34043435  0.98530506    -0.11200
C167        C  0.34741170  0.34024429  0.99917406    -0.09600
C168        C  0.38157892  0.32294377  0.00241892    -0.11200
C169        C  0.50361922  0.32142101  0.12249478    -0.09600
C170        C  0.50717152  0.33937572  0.14918517    -0.11200
C171        C  0.09740469  0.15847659  0.24917053    -0.09600
C172        C  0.13157174  0.17577693  0.25241581    -0.11200
C173        C  0.39205517  0.17409428  0.22549330    -0.09600
C174        C  0.42497963  0.15828885  0.23530675    -0.11200
C175        C  0.42492051  0.09026116  0.23546641    -0.09600
C176        C  0.39198672  0.07443527  0.22571262    -0.11200
C177        C  0.09734672  0.09003184  0.24933298    -0.10000
C178        C  0.13149407  0.07272739  0.25263356    -0.11200
C179        C  0.99260913  0.15944737  0.34988394    -0.09600
C180        C  0.99618441  0.17745222  0.37651568    -0.11200
C181        C  0.32472748  0.09043258  0.51392003    -0.09600
C182        C  0.35765187  0.07462705  0.52373327    -0.11200
C183        C  0.15230246  0.09024494  0.50005652    -0.09600
C184        C  0.11813515  0.07294474  0.49681142    -0.11200
C185        C  0.99609330  0.07142472  0.37673442    -0.09600
C186        C  0.99253711  0.08937942  0.35004446    -0.11200
C187        C  0.34735683  0.40868931  0.99933274    -0.09600
C188        C  0.38150477  0.42599340  0.00263291    -0.11200
C189        C  0.17493235  0.40846226  0.98546079    -0.09600
C190        C  0.14199812  0.42428827  0.97570777    -0.11200
C191        C  0.50353233  0.42744944  0.12270915    -0.09600
C192        C  0.50710308  0.40944429  0.14934172    -0.11200
O193        O  0.38490874  0.02801166  0.54714934    -0.77300
O194        O  0.05857193  0.43907817  0.48409271    -0.61900
O195        O  0.48380729  0.00505738  0.53610380    -1.08600
C196        C  0.00567265  0.04963964  0.90682423     1.09600
O197        O  0.11474621  0.47092348  0.95235550    -0.75200
O198        O  0.10291011  0.03226824  0.95687896    -0.62700
Ni199      Ni  0.42412150  0.99817603  0.57205208     1.34900
C200        C  0.08445527  0.05080510  0.98371462     0.88400
O201        O  0.02182998  0.44852471  0.55935318    -0.75700
O202        O  0.45713139  0.46769749  0.60084824    -0.86000
C203        C  0.10293518  0.44527734  0.46926221     0.87900
O204        O  0.39672672  0.46666485  0.54258265    -0.64200
O205        O  0.04249812  0.03119482  0.89862239    -0.83500
C206        C  0.41518749  0.44812391  0.51575352     0.88800
C207        C  0.49396732  0.44926002  0.59264473     1.10300
H208        H  0.99318661  0.48343600  0.94809058     0.42100
O209        O  0.01584272  0.49386532  0.96338871    -1.06100
O210        O  0.03853141  0.05130992  0.99829151    -0.62800
Ni211      Ni  0.48030166  0.02803962  0.98854359     1.26300
O212        O  0.46111931  0.44761030  0.50119632    -0.63000
O213        O  0.47782997  0.05039563  0.94012615    -0.75300
C214        C  0.39671874  0.05365056  0.03022030     0.88200
O215        O  0.44108339  0.05984745  0.01539116    -0.62500
Ni216      Ni  0.07552376  0.50073910  0.92743537     1.27400
Ni217      Ni  0.01935126  0.47088339  0.51094479     1.26100
H218        H  0.50646409  0.01548852  0.55140681     0.42700
C219        C  0.00259399  0.09423384  0.77326032     0.49100
H220        H  0.00258667  0.06853784  0.77344230     0.00100
C221        C  0.50265259  0.15438283  0.77312081     0.49100
H222        H  0.50269859  0.18007908  0.77318501     0.00100
C223        C  0.49359303  0.10850829  0.81500619    -0.13600
C224        C  0.05237270  0.10845689  0.75453290    -0.13400
C225        C  0.46252956  0.10855417  0.75096464    -0.13800
C226        C  0.99362640  0.14022546  0.81493278    -0.13700
C227        C  0.05240109  0.14008461  0.75445811    -0.13300
C228        C  0.46255931  0.14002231  0.75089033    -0.13600
O229        O  0.11480732  0.27801323  0.95207782    -0.77300
O230        O  0.44114631  0.18907676  0.01513150    -0.61900
O231        O  0.01590936  0.25505804  0.96312317    -1.08600
C232        C  0.49404190  0.29963642  0.59240411     1.09600
O233        O  0.38497107  0.22092038  0.54687009    -0.75200
O234        O  0.39680511  0.28226545  0.54234893    -0.62700
Ni235      Ni  0.07559537  0.24817773  0.92717463     1.34900
C236        C  0.41525943  0.30080349  0.51551412     0.88400
O237        O  0.47788754  0.19852618  0.93987188    -0.75700
O238        O  0.04258657  0.21769943  0.89837752    -0.86000
C239        C  0.39678279  0.19527510  0.02996171     0.87900
O240        O  0.10299068  0.21666618  0.95664396    -0.64200
O241        O  0.45721736  0.28119073  0.60060526    -0.83500
C242        C  0.08453010  0.19812452  0.98347272     0.88800
C243        C  0.00575029  0.19926204  0.90658043     1.10300
H244        H  0.50653072  0.23343389  0.55113576     0.42100
O245        O  0.48387406  0.24386361  0.53583782    -1.06100
O246        O  0.46118336  0.30130907  0.50093715    -0.62800
Ni247      Ni  0.01941430  0.27803899  0.51068412     1.26300
O248        O  0.03859820  0.19761003  0.99802933    -0.63000
O249        O  0.02188486  0.30039377  0.55910232    -0.75300
C250        C  0.10299676  0.30365170  0.46900711     0.88200
O251        O  0.05863215  0.30984787  0.48383721    -0.62500
Ni252      Ni  0.42419269  0.25073558  0.57179131     1.27400
Ni253      Ni  0.48036622  0.22088313  0.98828106     1.26100
H254        H  0.99325249  0.26548944  0.94782062     0.42700
C255        C  0.99704850  0.40438129  0.72610520     0.49100
H256        H  0.99700392  0.43007757  0.72603919     0.00100
C257        C  0.49710409  0.34423234  0.72596941     0.49100
H258        H  0.49711036  0.31853635  0.72578895     0.00100
C259        C  0.50607769  0.39022283  0.68429424    -0.13600
C260        C  0.03713866  0.39002078  0.74833902    -0.13400
C261        C  0.44729825  0.39008436  0.74476666    -0.13800
C262        C  0.00610962  0.35850565  0.68422267    -0.13700
C263        C  0.03716684  0.35855257  0.74826666    -0.13300
C264        C  0.44732515  0.35845663  0.74469380    -0.13600
O265        O  0.36473617  0.02780125  0.70235671    -0.77300
O266        O  0.19107506  0.43887361  0.76538975    -0.61900
O267        O  0.26583274  0.00485807  0.71338870    -1.08600
C268        C  0.24395726  0.04945917  0.84264665     1.09600
O269        O  0.13489985  0.47070832  0.79714893    -0.75200
O270        O  0.14671656  0.03205545  0.79258344    -0.62700
Ni271      Ni  0.32551461  0.99798589  0.67743569     1.34900
C272        C  0.16517700  0.05059708  0.76575458     0.88400
O273        O  0.22782229  0.44832757  0.69012458    -0.75700
O274        O  0.29249010  0.46753059  0.64862191    -0.86000
C275        C  0.14671040  0.44506977  0.78021977     0.87900
O276        O  0.35290201  0.46645621  0.70687838    -0.64200
O277        O  0.20712107  0.03102174  0.85084964    -0.83500
C278        C  0.33444759  0.44791804  0.73371296     0.88800
C279        C  0.25566550  0.44908493  0.65682291     1.10300
H280        H  0.25645424  0.48323223  0.80140582     0.42100
O281        O  0.23379750  0.49366352  0.78610346    -1.06100
O282        O  0.21110880  0.05111151  0.75119769    -0.62800
Ni283      Ni  0.26934073  0.02783834  0.76094573     1.26300
O284        O  0.28852356  0.44741238  0.74828965    -0.63000
O285        O  0.27181979  0.05019509  0.80935510    -0.75300
C286        C  0.35292430  0.05344642  0.71926524     0.88200
O287        O  0.30856081  0.05964467  0.73409557    -0.62500
Ni288      Ni  0.17411185  0.50054366  0.82205233     1.27400
Ni289      Ni  0.23029262  0.47068253  0.73854258     1.26100
H290        H  0.24317600  0.01528808  0.69809045     0.42700
C291        C  0.25265875  0.34434020  0.52312168     0.49100
H292        H  0.25270343  0.31864394  0.52318757     0.00100
C293        C  0.25260310  0.40448922  0.52325759     0.49100
H294        H  0.25259687  0.43018522  0.52343813     0.00100
C295        C  0.24362956  0.35849869  0.56493266    -0.13600
C296        C  0.30240895  0.35863722  0.50446031    -0.13400
C297        C  0.21256844  0.35870080  0.50088798    -0.13800
C298        C  0.24359763  0.39021587  0.56500427    -0.13700
C299        C  0.30238205  0.39026494  0.50453319    -0.13300
C300        C  0.21254024  0.39016901  0.50096042    -0.13600
O301        O  0.13496094  0.27779794  0.79687129    -0.77300
O302        O  0.30862377  0.18887406  0.73383555    -0.61900
O303        O  0.23386444  0.25485615  0.78583790    -1.08600
C304        C  0.25574004  0.29946160  0.65658215     1.09600
O305        O  0.36479848  0.22070983  0.70207744    -0.75200
O306        O  0.35298033  0.28205670  0.70664485    -0.62700
Ni307      Ni  0.17418366  0.24798256  0.82179159     1.34900
C308        C  0.33451943  0.30059778  0.73347378     0.88400
O309        O  0.27187732  0.19832594  0.80910066    -0.75700
O310        O  0.20720953  0.21752693  0.85060464    -0.86000
C311        C  0.35298843  0.19507095  0.71900639     0.87900
O312        O  0.14679701  0.21645333  0.79234841    -0.64200
O313        O  0.29257617  0.28102427  0.64837874    -0.83500
C314        C  0.16525165  0.19791657  0.76551254     0.88800
C315        C  0.24403482  0.19908200  0.84240267     1.10300
H316        H  0.24324264  0.23323276  0.69781950     0.42100
O317        O  0.26589966  0.24366406  0.71312275    -1.06100
O318        O  0.28858756  0.30111145  0.74803072    -0.62800
Ni319      Ni  0.23035590  0.27783816  0.73828194     1.26300
O320        O  0.21117546  0.19741171  0.75093549    -0.63000
O321        O  0.22787716  0.30019683  0.68987360    -0.75300
C322        C  0.14677192  0.30344409  0.77996452     0.88200
O323        O  0.19113516  0.30964333  0.76513408    -0.62500
Ni324      Ni  0.32558582  0.25054563  0.67717484     1.27400
Ni325      Ni  0.26940548  0.22068190  0.76068311     1.26100
H326        H  0.25652059  0.26528543  0.80113590     0.42700
C327        C  0.24711310  0.15448771  0.97596661     0.49100
H328        H  0.24712037  0.18018368  0.97578458     0.00100
C329        C  0.24705458  0.09433868  0.97610618     0.49100
H330        H  0.24700863  0.06864242  0.97604203     0.00100
C331        C  0.25611419  0.14021322  0.93422075    -0.13600
C332        C  0.28717758  0.14016737  0.99826227    -0.13400
C333        C  0.19733441  0.14026463  0.99469406    -0.13800
C334        C  0.25608067  0.10849603  0.93429418    -0.13700
C335        C  0.28714779  0.10869919  0.99833667    -0.13300
C336        C  0.19730605  0.10863688  0.99476890    -0.13600
C337        C  0.25361418  0.17729688  0.87249255    -0.09600
C338        C  0.25717035  0.15934220  0.89918256    -0.11200
C339        C  0.24617507  0.32127217  0.62651779    -0.09600
C340        C  0.24260428  0.33927729  0.59988524    -0.11200
C341        C  0.24608821  0.42730047  0.62673218    -0.09600
C342        C  0.24253557  0.40934579  0.60004184    -0.11200
C343        C  0.25709795  0.08927416  0.89934300    -0.09600
C344        C  0.25352307  0.07126916  0.87271132    -0.11200
C345        C  0.07477465  0.34025922  0.76376617    -0.09600
C346        C  0.10770881  0.32443312  0.77351907    -0.11200
C347        C  0.36820209  0.32272832  0.74659439    -0.09600
C348        C  0.40235033  0.34003225  0.74989425    -0.11200
C349        C  0.40229556  0.40847734  0.75005311    -0.09600
C350        C  0.36812830  0.42577787  0.74680840    -0.11200
C351        C  0.07471857  0.40828733  0.76392184    -0.09600
C352        C  0.10764374  0.42409280  0.77373376    -0.11200
C353        C  0.11821303  0.17599424  0.99659373    -0.09600
C354        C  0.15236044  0.15868979  0.99989419    -0.11200
C355        C  0.32478660  0.15846040  0.01376052    -0.09600
C356        C  0.35772044  0.17428616  0.02351443    -0.11200
C357        C  0.14206344  0.32462868  0.47549315    -0.09600
C358        C  0.17498842  0.34043432  0.48530509    -0.11200
C359        C  0.34741171  0.34024435  0.49917406    -0.09600
C360        C  0.38157884  0.32294378  0.50241887    -0.11200
C361        C  0.50361924  0.32142097  0.62249474    -0.09600
C362        C  0.50717159  0.33937572  0.64918507    -0.11200
C363        C  0.09740470  0.15847656  0.74917054    -0.09600
C364        C  0.13157163  0.17577698  0.75241585    -0.11200
C365        C  0.39205526  0.17409434  0.72549338    -0.09600
C366        C  0.42497970  0.15828885  0.73530673    -0.11200
C367        C  0.42492049  0.09026120  0.73546630    -0.09600
C368        C  0.39198661  0.07443541  0.72571253    -0.11200
C369        C  0.09734671  0.09003181  0.74933297    -0.10000
C370        C  0.13149410  0.07272744  0.75263373    -0.11200
C371        C  0.99260910  0.15944728  0.84988398    -0.09600
C372        C  0.99618438  0.17745216  0.87651571    -0.11200
C373        C  0.32472741  0.09043258  0.01392007    -0.09600
C374        C  0.35765192  0.07462711  0.02373331    -0.11200
C375        C  0.15230247  0.09024493  0.00005636    -0.09600
C376        C  0.11813522  0.07294470  0.99681128    -0.11200
C377        C  0.99609340  0.07142475  0.87673440    -0.09600
C378        C  0.99253713  0.08937938  0.85004436    -0.11200
C379        C  0.34735688  0.40868933  0.49933276    -0.09600
C380        C  0.38150483  0.42599341  0.50263286    -0.11200
C381        C  0.17493243  0.40846227  0.48546078    -0.09600
C382        C  0.14199823  0.42428826  0.47570767    -0.11200
C383        C  0.50353237  0.42744948  0.62270916    -0.09600
C384        C  0.50710309  0.40944428  0.64934166    -0.11200
O385        O  0.38490873  0.52801173  0.04714945    -0.77300
O386        O  0.05857186  0.93907816  0.98409271    -0.61900
O387        O  0.48380749  0.50505743  0.03610385    -1.08600
C388        C  0.00567267  0.54963956  0.40682420     1.09600
O389        O  0.11474620  0.97092354  0.45235561    -0.75200
O390        O  0.10291018  0.53226831  0.45687902    -0.62700
Ni391      Ni  0.42412158  0.49817608  0.07205212     1.34900
C392        C  0.08445526  0.55080513  0.48371472     0.88400
O393        O  0.02183000  0.94852480  0.05935325    -0.75700
O394        O  0.45713121  0.96769744  0.10084826    -0.86000
C395        C  0.10293511  0.94527732  0.96926223     0.87900
O396        O  0.39672673  0.96666495  0.04258252    -0.64200
O397        O  0.04249820  0.53119478  0.39862237    -0.83500
C398        C  0.41518746  0.94812392  0.01575346     0.88800
C399        C  0.49396723  0.94926003  0.09264476     1.10300
H400        H  0.99318672  0.98343613  0.44809066     0.42100
O401        O  0.01584272  0.99386539  0.46338875    -1.06100
O402        O  0.03853140  0.55130992  0.49829156    -0.62800
Ni403      Ni  0.48030165  0.52803962  0.48854358     1.26300
O404        O  0.46111925  0.94761020  0.00119631    -0.63000
O405        O  0.47782996  0.55039559  0.44012612    -0.75300
C406        C  0.39671871  0.55365058  0.53022030     0.88200
O407        O  0.44108331  0.55984745  0.51539109    -0.62500
Ni408      Ni  0.07552374  0.00073914  0.42743542     1.27400
Ni409      Ni  0.01935114  0.97088336  0.01094477     1.26100
H410        H  0.50646458  0.51548869  0.05140694     0.42700
C411        C  0.00259403  0.59423387  0.27326040     0.49100
H412        H  0.00258680  0.56853788  0.27344239     0.00100
C413        C  0.50265255  0.65438286  0.27312083     0.49100
H414        H  0.50269856  0.68007912  0.27318502     0.00100
C415        C  0.49359296  0.60850833  0.31500626    -0.13600
C416        C  0.05237270  0.60845694  0.25453294    -0.13400
C417        C  0.46252947  0.60855418  0.25096476    -0.13800
C418        C  0.99362651  0.64022549  0.31493280    -0.13700
C419        C  0.05240108  0.64008466  0.25445808    -0.13300
C420        C  0.46255925  0.64002233  0.25089039    -0.13600
O421        O  0.11480723  0.77801313  0.45207790    -0.77300
O422        O  0.44114628  0.68907678  0.51513145    -0.61900
O423        O  0.01590947  0.75505801  0.46312316    -1.08600
C424        C  0.49404189  0.79963646  0.09240416     1.09600
O425        O  0.38497099  0.72092036  0.04687008    -0.75200
O426        O  0.39680519  0.78226532  0.04234881    -0.62700
Ni427      Ni  0.07559538  0.74817771  0.42717465     1.34900
C428        C  0.41525954  0.80080347  0.01551413     0.88400
O429        O  0.47788760  0.69852614  0.43987185    -0.75700
O430        O  0.04258653  0.71769950  0.39837752    -0.86000
C431        C  0.39678276  0.69527514  0.52996164     0.87900
O432        O  0.10299081  0.71666616  0.45664390    -0.64200
O433        O  0.45721729  0.78119079  0.10060528    -0.83500
C434        C  0.08453025  0.69812449  0.48347262     0.88800
C435        C  0.00575032  0.69926206  0.40658041     1.10300
H436        H  0.50653069  0.73343377  0.05113597     0.42100
O437        O  0.48387410  0.74386356  0.03583794    -1.06100
O438        O  0.46118350  0.80130909  0.00093724    -0.62800
Ni439      Ni  0.01941434  0.77803895  0.01068422     1.26300
O440        O  0.03859832  0.69760996  0.49802921    -0.63000
O441        O  0.02188488  0.80039378  0.05910237    -0.75300
C442        C  0.10299672  0.80365171  0.96900719     0.88200
O443        O  0.05863205  0.80984783  0.98383723    -0.62500
Ni444      Ni  0.42419266  0.75073555  0.07179134     1.27400
Ni445      Ni  0.48036623  0.72088312  0.48828097     1.26100
H446        H  0.99325282  0.76548936  0.44782064     0.42700
C447        C  0.99704849  0.90438136  0.22610528     0.49100
H448        H  0.99700396  0.93007762  0.22603932     0.00100
C449        C  0.49710406  0.84423234  0.22596949     0.49100
H450        H  0.49711031  0.81853634  0.22578903     0.00100
C451        C  0.50607765  0.89022285  0.18429431    -0.13600
C452        C  0.03713871  0.89002076  0.24833903    -0.13400
C453        C  0.44729824  0.89008440  0.24476670    -0.13800
C454        C  0.00610947  0.85850566  0.18422276    -0.13700
C455        C  0.03716689  0.85855254  0.24826663    -0.13300
C456        C  0.44732512  0.85845664  0.24469390    -0.13600
O457        O  0.36473615  0.52780116  0.20235678    -0.77300
O458        O  0.19107499  0.93887359  0.26538982    -0.61900
O459        O  0.26583273  0.50485801  0.21338870    -1.08600
C460        C  0.24395713  0.54945928  0.34264661     1.09600
O461        O  0.13489992  0.97070840  0.29714903    -0.75200
O462        O  0.14671648  0.53205547  0.29258328    -0.62700
Ni463      Ni  0.32551459  0.49798588  0.17743565     1.34900
C464        C  0.16517697  0.55059709  0.26575443     0.88400
O465        O  0.22782242  0.94832750  0.19012464    -0.75700
O466        O  0.29249014  0.96753057  0.14862187    -0.86000
C467        C  0.14671034  0.94506982  0.28021987     0.87900
O468        O  0.35290206  0.96645628  0.20687837    -0.64200
O469        O  0.20712089  0.53102186  0.35084965    -0.83500
C470        C  0.33444766  0.94791808  0.23371294     0.88800
C471        C  0.25566554  0.94908490  0.15682292     1.10300
H472        H  0.25645405  0.98323240  0.30140576     0.42100
O473        O  0.23379749  0.99366361  0.28610345    -1.06100
O474        O  0.21110882  0.55111157  0.25119765    -0.62800
Ni475      Ni  0.26934070  0.52783839  0.26094567     1.26300
O476        O  0.28852364  0.94741235  0.24828967    -0.63000
O477        O  0.27181961  0.55019520  0.30935502    -0.75300
C478        C  0.35292430  0.55344637  0.21926523     0.88200
O479        O  0.30856074  0.55964469  0.23409534    -0.62500
Ni480      Ni  0.17411192  0.00054376  0.32205238     1.27400
Ni481      Ni  0.23029269  0.97068248  0.23854261     1.26100
H482        H  0.24317593  0.51528790  0.19809050     0.42700
C483        C  0.25265874  0.84434022  0.02312171     0.49100
H484        H  0.25270331  0.81864397  0.02318761     0.00100
C485        C  0.25260315  0.90448922  0.02325763     0.49100
H486        H  0.25259699  0.93018521  0.02343818     0.00100
C487        C  0.24362958  0.85849871  0.06493270    -0.13600
C488        C  0.30240897  0.85863719  0.00446036    -0.13400
C489        C  0.21256851  0.85870083  0.00088793    -0.13800
C490        C  0.24359770  0.89021587  0.06500430    -0.13700
C491        C  0.30238208  0.89026492  0.00453324    -0.13300
C492        C  0.21254032  0.89016904  0.00096040    -0.13600
O493        O  0.13496090  0.77779797  0.29687124    -0.77300
O494        O  0.30862382  0.68887414  0.23383570    -0.61900
O495        O  0.23386415  0.75485613  0.28583782    -1.08600
C496        C  0.25574011  0.79946168  0.15658221     1.09600
O497        O  0.36479857  0.72070975  0.20207729    -0.75200
O498        O  0.35298046  0.78205663  0.20664483    -0.62700
Ni499      Ni  0.17418348  0.74798253  0.32179155     1.34900
C500        C  0.33451950  0.80059769  0.23347373     0.88400
O501        O  0.27187723  0.69832606  0.30910073    -0.75700
O502        O  0.20720934  0.71752693  0.35060466    -0.86000
C503        C  0.35298845  0.69507092  0.21900637     0.87900
O504        O  0.14679699  0.71645325  0.29234836    -0.64200
O505        O  0.29257627  0.78102435  0.14837883    -0.83500
C506        C  0.16525172  0.69791652  0.26551250     0.88800
C507        C  0.24403472  0.69908206  0.34240273     1.10300
H508        H  0.24324278  0.73323288  0.19781962     0.42100
O509        O  0.26589970  0.74366414  0.21312279    -1.06100
O510        O  0.28858760  0.80111139  0.24803065    -0.62800
Ni511      Ni  0.23035582  0.77783819  0.23828190     1.26300
O512        O  0.21117552  0.69741175  0.25093539    -0.63000
O513        O  0.22787721  0.80019691  0.18987363    -0.75300
C514        C  0.14677192  0.80344412  0.27996449     0.88200
O515        O  0.19113514  0.80964337  0.26513401    -0.62500
Ni516      Ni  0.32558588  0.75054563  0.17717484     1.27400
Ni517      Ni  0.26940541  0.72068198  0.26068315     1.26100
H518        H  0.25651998  0.76528529  0.30113569     0.42700
C519        C  0.24711310  0.65448767  0.47596665     0.49100
H520        H  0.24712040  0.68018366  0.47578463     0.00100
C521        C  0.24705466  0.59433868  0.47610624     0.49100
H522        H  0.24700873  0.56864243  0.47604214     0.00100
C523        C  0.25611423  0.64021321  0.43422077    -0.13600
C524        C  0.28717754  0.64016740  0.49826234    -0.13400
C525        C  0.19733446  0.64026460  0.49469413    -0.13800
C526        C  0.25608078  0.60849602  0.43429422    -0.13700
C527        C  0.28714783  0.60869925  0.49833672    -0.13300
C528        C  0.19730611  0.60863686  0.49476898    -0.13600
C529        C  0.25361409  0.67729690  0.37249257    -0.09600
C530        C  0.25717026  0.65934218  0.39918258    -0.11200
C531        C  0.24617519  0.82127224  0.12651785    -0.09600
C532        C  0.24260439  0.83927735  0.09988529    -0.11200
C533        C  0.24608820  0.92730044  0.12673224    -0.09600
C534        C  0.24253562  0.90934575  0.10004191    -0.11200
C535        C  0.25709809  0.58927415  0.39934303    -0.09600
C536        C  0.25352311  0.57126919  0.37271129    -0.11200
C537        C  0.07477465  0.84025918  0.26376618    -0.09600
C538        C  0.10770884  0.82443313  0.27351908    -0.11200
C539        C  0.36820218  0.82272821  0.24659435    -0.09600
C540        C  0.40235033  0.84003220  0.24989429    -0.11200
C541        C  0.40229557  0.90847737  0.25005296    -0.09600
C542        C  0.36812839  0.92577794  0.24680825    -0.11200
C543        C  0.07471859  0.90828729  0.26392194    -0.09600
C544        C  0.10764361  0.92409289  0.27373389    -0.11200
C545        C  0.11821320  0.67599424  0.49659365    -0.09600
C546        C  0.15236051  0.65868977  0.49989423    -0.11200
C547        C  0.32478654  0.65846049  0.51376048    -0.09600
C548        C  0.35772038  0.67428626  0.52351432    -0.11200
C549        C  0.14206334  0.82462873  0.97549329    -0.09600
C550        C  0.17498843  0.84043439  0.98530507    -0.11200
C551        C  0.34741171  0.84024429  0.99917405    -0.09600
C552        C  0.38157892  0.82294378  0.00241893    -0.11200
C553        C  0.50361930  0.82142099  0.12249480    -0.09600
C554        C  0.50717163  0.83937570  0.14918519    -0.11200
C555        C  0.09740468  0.65847662  0.24917052    -0.09600
C556        C  0.13157174  0.67577694  0.25241580    -0.11200
C557        C  0.39205522  0.67409425  0.22549330    -0.09600
C558        C  0.42497970  0.65828886  0.23530673    -0.11200
C559        C  0.42492048  0.59026115  0.23546639    -0.09600
C560        C  0.39198663  0.57443530  0.22571264    -0.11200
C561        C  0.09734669  0.59003184  0.24933298    -0.10000
C562        C  0.13149409  0.57272743  0.25263355    -0.11200
C563        C  0.99260924  0.65944735  0.34988394    -0.09600
C564        C  0.99618450  0.67745220  0.37651569    -0.11200
C565        C  0.32472753  0.59043266  0.51392002    -0.09600
C566        C  0.35765193  0.57462713  0.52373331    -0.11200
C567        C  0.15230253  0.59024489  0.50005652    -0.09600
C568        C  0.11813516  0.57294475  0.49681144    -0.11200
C569        C  0.99609340  0.57142471  0.37673441    -0.09600
C570        C  0.99253703  0.58937940  0.35004446    -0.11200
C571        C  0.34735682  0.90868933  0.99933273    -0.09600
C572        C  0.38150472  0.92599342  0.00263290    -0.11200
C573        C  0.17493248  0.90846230  0.98546077    -0.09600
C574        C  0.14199820  0.92428828  0.97570779    -0.11200
C575        C  0.50353221  0.92744943  0.12270915    -0.09600
C576        C  0.50710290  0.90944428  0.14934171    -0.11200
O577        O  0.38490874  0.52801172  0.54714941    -0.77300
O578        O  0.05857188  0.93907815  0.48409276    -0.61900
O579        O  0.48380746  0.50505742  0.53610383    -1.08600
C580        C  0.00567265  0.54963964  0.90682422     1.09600
O581        O  0.11474623  0.97092348  0.95235549    -0.75200
O582        O  0.10291004  0.53226827  0.95687900    -0.62700
Ni583      Ni  0.42412159  0.49817607  0.57205209     1.34900
C584        C  0.08445519  0.55080517  0.98371462     0.88400
O585        O  0.02182996  0.94852474  0.55935320    -0.75700
O586        O  0.45713126  0.96769745  0.60084822    -0.86000
C587        C  0.10293512  0.94527732  0.46926220     0.87900
O588        O  0.39672666  0.96666483  0.54258266    -0.64200
O589        O  0.04249810  0.53119480  0.89862238    -0.83500
C590        C  0.41518741  0.94812389  0.51575351     0.88800
C591        C  0.49396722  0.94926001  0.59264472     1.10300
H592        H  0.99318661  0.98343599  0.94809059     0.42100
O593        O  0.01584270  0.99386533  0.96338872    -1.06100
O594        O  0.03853134  0.55130996  0.99829152    -0.62800
Ni595      Ni  0.48030165  0.52803960  0.98854359     1.26300
O596        O  0.46111922  0.94761025  0.50119629    -0.63000
O597        O  0.47782995  0.55039562  0.94012614    -0.75300
C598        C  0.39671873  0.55365053  0.03022029     0.88200
O599        O  0.44108338  0.55984742  0.01539119    -0.62500
Ni600      Ni  0.07552375  0.00073910  0.92743537     1.27400
Ni601      Ni  0.01935114  0.97088337  0.51094477     1.26100
H602        H  0.50646447  0.51548860  0.55140691     0.42700
C603        C  0.00259394  0.59423385  0.77326035     0.49100
H604        H  0.00258657  0.56853785  0.77344238     0.00100
C605        C  0.50265256  0.65438284  0.77312080     0.49100
H606        H  0.50269859  0.68007910  0.77318495     0.00100
C607        C  0.49359299  0.60850831  0.81500620    -0.13600
C608        C  0.05237264  0.60845687  0.75453287    -0.13400
C609        C  0.46252944  0.60855417  0.75096469    -0.13800
C610        C  0.99362652  0.64022550  0.81493277    -0.13700
C611        C  0.05240108  0.64008460  0.75445806    -0.13300
C612        C  0.46255927  0.64002231  0.75089035    -0.13600
O613        O  0.11480729  0.77801323  0.95207785    -0.77300
O614        O  0.44114631  0.68907677  0.01513152    -0.61900
O615        O  0.01590947  0.75505800  0.96312321    -1.08600
C616        C  0.49404197  0.79963639  0.59240412     1.09600
O617        O  0.38497097  0.72092038  0.54687007    -0.75200
O618        O  0.39680519  0.78226546  0.54234889    -0.62700
Ni619      Ni  0.07559541  0.74817774  0.92717465     1.34900
C620        C  0.41525957  0.80080350  0.51551411     0.88400
O621        O  0.47788758  0.69852617  0.93987188    -0.75700
O622        O  0.04258652  0.71769953  0.89837752    -0.86000
C623        C  0.39678280  0.69527511  0.02996170     0.87900
O624        O  0.10299078  0.71666617  0.95664396    -0.64200
O625        O  0.45721733  0.78119075  0.60060523    -0.83500
C626        C  0.08453018  0.69812451  0.98347272     0.88800
C627        C  0.00575032  0.69926208  0.90658044     1.10300
H628        H  0.50653041  0.73343393  0.55113570     0.42100
O629        O  0.48387399  0.74386362  0.53583781    -1.06100
O630        O  0.46118352  0.80130907  0.50093715    -0.62800
Ni631      Ni  0.01941437  0.77803897  0.51068414     1.26300
O632        O  0.03859827  0.69761000  0.99802932    -0.63000
O633        O  0.02188496  0.80039375  0.55910232    -0.75300
C634        C  0.10299676  0.80365168  0.46900710     0.88200
O635        O  0.05863216  0.80984786  0.48383724    -0.62500
Ni636      Ni  0.42419262  0.75073558  0.57179130     1.27400
Ni637      Ni  0.48036627  0.72088311  0.98828107     1.26100
H638        H  0.99325279  0.76548932  0.94782070     0.42700
C639        C  0.99704849  0.90438130  0.72610522     0.49100
H640        H  0.99700394  0.93007758  0.72603925     0.00100
C641        C  0.49710413  0.84423235  0.72596941     0.49100
H642        H  0.49711040  0.81853636  0.72578891     0.00100
C643        C  0.50607773  0.89022285  0.68429425    -0.13600
C644        C  0.03713869  0.89002076  0.74833900    -0.13400
C645        C  0.44729827  0.89008436  0.74476664    -0.13800
C646        C  0.00610952  0.85850567  0.68422268    -0.13700
C647        C  0.03716682  0.85855254  0.74826666    -0.13300
C648        C  0.44732518  0.85845663  0.74469379    -0.13600
O649        O  0.36473603  0.52780124  0.70235670    -0.77300
O650        O  0.19107504  0.93887358  0.76538970    -0.61900
O651        O  0.26583266  0.50485808  0.71338872    -1.08600
C652        C  0.24395711  0.54945918  0.84264666     1.09600
O653        O  0.13489994  0.97070833  0.79714897    -0.75200
O654        O  0.14671647  0.53205544  0.79258340    -0.62700
Ni655      Ni  0.32551446  0.49798591  0.67743568     1.34900
C656        C  0.16517698  0.55059708  0.76575457     0.88400
O657        O  0.22782241  0.94832755  0.69012458    -0.75700
O658        O  0.29249024  0.96753056  0.64862191    -0.86000
C659        C  0.14671041  0.94506977  0.78021979     0.87900
O660        O  0.35290215  0.96645621  0.70687839    -0.64200
O661        O  0.20712090  0.53102174  0.85084964    -0.83500
C662        C  0.33444768  0.94791806  0.73371297     0.88800
C663        C  0.25566560  0.94908491  0.65682291     1.10300
H664        H  0.25645398  0.98323229  0.80140567     0.42100
O665        O  0.23379742  0.99366355  0.78610340    -1.06100
O666        O  0.21110879  0.55111149  0.75119774    -0.62800
Ni667      Ni  0.26934073  0.52783834  0.76094575     1.26300
O668        O  0.28852363  0.94741241  0.74828965    -0.63000
O669        O  0.27181969  0.55019508  0.80935513    -0.75300
C670        C  0.35292421  0.55344641  0.71926522     0.88200
O671        O  0.30856073  0.55964468  0.73409557    -0.62500
Ni672      Ni  0.17411194  0.00054367  0.82205236     1.27400
Ni673      Ni  0.23029263  0.97068252  0.73854254     1.26100
H674        H  0.24317580  0.51528808  0.69809046     0.42700
C675        C  0.25265867  0.84434018  0.52312168     0.49100
H676        H  0.25270323  0.81864392  0.52318757     0.00100
C677        C  0.25260309  0.90448920  0.52325758     0.49100
H678        H  0.25259689  0.93018520  0.52343813     0.00100
C679        C  0.24362951  0.85849868  0.56493266    -0.13600
C680        C  0.30240895  0.85863718  0.50446031    -0.13400
C681        C  0.21256838  0.85870080  0.50088799    -0.13800
C682        C  0.24359766  0.89021586  0.56500426    -0.13700
C683        C  0.30238200  0.89026491  0.50453319    -0.13300
C684        C  0.21254023  0.89016901  0.50096041    -0.13600
O685        O  0.13496087  0.77779794  0.79687126    -0.77300
O686        O  0.30862382  0.68887413  0.73383561    -0.61900
O687        O  0.23386428  0.75485617  0.78583790    -1.08600
C688        C  0.25574010  0.79946164  0.65658217     1.09600
O689        O  0.36479855  0.72070983  0.70207740    -0.75200
O690        O  0.35298038  0.78205667  0.70664486    -0.62700
Ni691      Ni  0.17418350  0.74798254  0.82179159     1.34900
C692        C  0.33451946  0.80059775  0.73347378     0.88400
O693        O  0.27187719  0.69832602  0.80910066    -0.75700
O694        O  0.20720936  0.71752694  0.85060467    -0.86000
C695        C  0.35298847  0.69507097  0.71900640     0.87900
O696        O  0.14679695  0.71645331  0.79234836    -0.64200
O697        O  0.29257623  0.78102430  0.64837877    -0.83500
C698        C  0.16525167  0.69791653  0.76551254     0.88800
C699        C  0.24403473  0.69908205  0.84240269     1.10300
H700        H  0.24324264  0.73323274  0.69781952     0.42100
O701        O  0.26589963  0.74366408  0.71312276    -1.06100
O702        O  0.28858757  0.80111144  0.74803068    -0.62800
Ni703      Ni  0.23035584  0.77783816  0.73828193     1.26300
O704        O  0.21117550  0.69741172  0.75093550    -0.63000
O705        O  0.22787710  0.80019681  0.68987356    -0.75300
C706        C  0.14677195  0.80344410  0.77996453     0.88200
O707        O  0.19113520  0.80964331  0.76513411    -0.62500
Ni708      Ni  0.32558583  0.75054563  0.67717485     1.27400
Ni709      Ni  0.26940543  0.72068197  0.76068313     1.26100
H710        H  0.25652037  0.76528548  0.80113592     0.42700
C711        C  0.24711320  0.65448772  0.97596660     0.49100
H712        H  0.24712054  0.68018372  0.97578459     0.00100
C713        C  0.24705468  0.59433873  0.97610617     0.49100
H714        H  0.24700878  0.56864248  0.97604202     0.00100
C715        C  0.25611425  0.64021325  0.93422073    -0.13600
C716        C  0.28717765  0.64016742  0.99826227    -0.13400
C717        C  0.19733453  0.64026466  0.99469408    -0.13800
C718        C  0.25608071  0.60849608  0.93429417    -0.13700
C719        C  0.28714789  0.60869925  0.99833664    -0.13300
C720        C  0.19730615  0.60863692  0.99476892    -0.13600
C721        C  0.25361417  0.67729693  0.87249254    -0.09600
C722        C  0.25717031  0.65934224  0.89918254    -0.11200
C723        C  0.24617528  0.82127226  0.62651783    -0.09600
C724        C  0.24260441  0.83927732  0.59988524    -0.11200
C725        C  0.24608824  0.92730047  0.62673217    -0.09600
C726        C  0.24253567  0.90934578  0.60004183    -0.11200
C727        C  0.25709798  0.58927416  0.89934299    -0.09600
C728        C  0.25352295  0.57126916  0.87271134    -0.11200
C729        C  0.07477470  0.84025921  0.76376613    -0.09600
C730        C  0.10770892  0.82443315  0.77351904    -0.11200
C731        C  0.36820215  0.82272827  0.74659442    -0.09600
C732        C  0.40235039  0.84003221  0.74989426    -0.11200
C733        C  0.40229557  0.90847731  0.75005311    -0.09600
C734        C  0.36812835  0.92577787  0.74680842    -0.11200
C735        C  0.07471862  0.90828729  0.76392183    -0.09600
C736        C  0.10764372  0.92409282  0.77373379    -0.11200
C737        C  0.11821312  0.67599424  0.99659375    -0.09600
C738        C  0.15236057  0.65868982  0.99989420    -0.11200
C739        C  0.32478659  0.65846045  0.01376051    -0.09600
C740        C  0.35772044  0.67428620  0.02351442    -0.11200
C741        C  0.14206344  0.82462864  0.47549313    -0.09600
C742        C  0.17498836  0.84043433  0.48530510    -0.11200
C743        C  0.34741176  0.84024433  0.49917409    -0.09600
C744        C  0.38157898  0.82294380  0.50241887    -0.11200
C745        C  0.50361938  0.82142094  0.62249475    -0.09600
C746        C  0.50717171  0.83937572  0.64918507    -0.11200
C747        C  0.09740470  0.65847654  0.74917053    -0.09600
C748        C  0.13157169  0.67577692  0.75241584    -0.11200
C749        C  0.39205527  0.67409433  0.72549337    -0.09600
C750        C  0.42497971  0.65828886  0.73530670    -0.11200
C751        C  0.42492040  0.59026120  0.73546631    -0.09600
C752        C  0.39198655  0.57443537  0.72571252    -0.11200
C753        C  0.09734666  0.59003178  0.74933297    -0.10000
C754        C  0.13149411  0.57272746  0.75263371    -0.11200
C755        C  0.99260930  0.65944732  0.84988397    -0.09600
C756        C  0.99618454  0.67745217  0.87651572    -0.11200
C757        C  0.32472747  0.59043261  0.01392005    -0.09600
C758        C  0.35765191  0.57462709  0.02373330    -0.11200
C759        C  0.15230253  0.59024496  0.00005634    -0.09600
C760        C  0.11813515  0.57294482  0.99681125    -0.11200
C761        C  0.99609346  0.57142480  0.87673440    -0.09600
C762        C  0.99253710  0.58937945  0.85004441    -0.11200
C763        C  0.34735679  0.90868933  0.49933275    -0.09600
C764        C  0.38150469  0.92599342  0.50263287    -0.11200
C765        C  0.17493245  0.90846229  0.48546075    -0.09600
C766        C  0.14199821  0.92428825  0.47570766    -0.11200
C767        C  0.50353220  0.92744947  0.62270915    -0.09600
C768        C  0.50710296  0.90944430  0.64934168    -0.11200
O769        O  0.88490875  0.02801175  0.04714944    -0.77300
O770        O  0.55857185  0.43907816  0.98409272    -0.61900
O771        O  0.98380734  0.00505740  0.03610383    -1.08600
C772        C  0.50567258  0.04963957  0.40682420     1.09600
O773        O  0.61474629  0.47092356  0.45235564    -0.75200
O774        O  0.60291009  0.03226832  0.45687899    -0.62700
Ni775      Ni  0.92412150  0.99817608  0.07205213     1.34900
C776        C  0.58445523  0.05080512  0.48371472     0.88400
O777        O  0.52183012  0.44852482  0.05935326    -0.75700
O778        O  0.95713133  0.46769746  0.10084826    -0.86000
C779        C  0.60293510  0.44527732  0.96926221     0.87900
O780        O  0.89672674  0.46666496  0.04258253    -0.64200
O781        O  0.54249806  0.03119477  0.39862234    -0.83500
C782        C  0.91518748  0.44812392  0.01575348     0.88800
C783        C  0.99396734  0.44926004  0.09264475     1.10300
H784        H  0.49318715  0.48343620  0.44809077     0.42100
O785        O  0.51584292  0.49386542  0.46338879    -1.06100
O786        O  0.53853137  0.05130990  0.49829161    -0.62800
Ni787      Ni  0.98030158  0.02803963  0.48854357     1.26300
O788        O  0.96111929  0.44761023  0.00119634    -0.63000
O789        O  0.97782998  0.05039562  0.44012614    -0.75300
C790        C  0.89671862  0.05365051  0.53022029     0.88200
O791        O  0.94108324  0.05984745  0.51539117    -0.62500
Ni792      Ni  0.57552384  0.50073913  0.42743541     1.27400
Ni793      Ni  0.51935122  0.47088338  0.01094478     1.26100
H794        H  0.00646426  0.01548863  0.05140686     0.42700
C795        C  0.50259404  0.09423386  0.27326040     0.49100
H796        H  0.50258673  0.06853787  0.27344241     0.00100
C797        C  0.00265253  0.15438286  0.27312082     0.49100
H798        H  0.00269847  0.18007912  0.27318500     0.00100
C799        C  0.99359313  0.10850834  0.31500626    -0.13600
C800        C  0.55237271  0.10845693  0.25453292    -0.13400
C801        C  0.96252950  0.10855417  0.25096478    -0.13800
C802        C  0.49362659  0.14022550  0.31493279    -0.13700
C803        C  0.55240107  0.14008465  0.25445804    -0.13300
C804        C  0.96255921  0.14002232  0.25089042    -0.13600
O805        O  0.61480724  0.27801315  0.45207792    -0.77300
O806        O  0.94114630  0.18907680  0.51513144    -0.61900
O807        O  0.51590931  0.25505805  0.46312313    -1.08600
C808        C  0.99404196  0.29963641  0.09240417     1.09600
O809        O  0.88497102  0.22092035  0.04687008    -0.75200
O810        O  0.89680514  0.28226532  0.04234879    -0.62700
Ni811      Ni  0.57559532  0.24817773  0.42717467     1.34900
C812        C  0.91525954  0.30080347  0.01551413     0.88400
O813        O  0.97788753  0.19852617  0.43987183    -0.75700
O814        O  0.54258659  0.21769949  0.39837756    -0.86000
C815        C  0.89678278  0.19527515  0.52996166     0.87900
O816        O  0.60299069  0.21666617  0.45664393    -0.64200
O817        O  0.95721732  0.28119078  0.10060531    -0.83500
C818        C  0.58453013  0.19812449  0.48347261     0.88800
C819        C  0.50575037  0.19926206  0.40658042     1.10300
H820        H  0.00653072  0.23343376  0.05113600     0.42100
O821        O  0.98387411  0.24386356  0.03583794    -1.06100
O822        O  0.96118351  0.30130911  0.00093730    -0.62800
Ni823      Ni  0.51941438  0.27803894  0.01068420     1.26300
O824        O  0.53859820  0.19760995  0.49802919    -0.63000
O825        O  0.52188497  0.30039373  0.05910239    -0.75300
C826        C  0.60299681  0.30365171  0.96900718     0.88200
O827        O  0.55863216  0.30984782  0.98383725    -0.62500
Ni828      Ni  0.92419265  0.25073556  0.07179134     1.27400
Ni829      Ni  0.98036619  0.22088314  0.48828096     1.26100
H830        H  0.49325251  0.26548944  0.44782055     0.42700
C831        C  0.49704855  0.40438135  0.22610530     0.49100
H832        H  0.49700402  0.43007760  0.22603934     0.00100
C833        C  0.99710405  0.34423233  0.22596949     0.49100
H834        H  0.99711026  0.31853634  0.22578901     0.00100
C835        C  0.00607773  0.39022285  0.18429432    -0.13600
C836        C  0.53713874  0.39002075  0.24833907    -0.13400
C837        C  0.94729825  0.39008438  0.24476669    -0.13800
C838        C  0.50610955  0.35850566  0.18422276    -0.13700
C839        C  0.53716689  0.35855253  0.24826668    -0.13300
C840        C  0.94732511  0.35845662  0.24469389    -0.13600
O841        O  0.86473616  0.02780116  0.20235674    -0.77300
O842        O  0.69107501  0.43887361  0.26538988    -0.61900
O843        O  0.76583283  0.00485800  0.21338873    -1.08600
C844        C  0.74395727  0.04945929  0.34264660     1.09600
O845        O  0.63489985  0.47070840  0.29714899    -0.75200
O846        O  0.64671653  0.03205547  0.29258337    -0.62700
Ni847      Ni  0.82551459  0.99798589  0.17743563     1.34900
C848        C  0.66517699  0.05059704  0.26575443     0.88400
O849        O  0.72782227  0.44832749  0.19012465    -0.75700
O850        O  0.79249001  0.46753058  0.14862191    -0.86000
C851        C  0.64671036  0.44506983  0.28021986     0.87900
O852        O  0.85290198  0.46645628  0.20687837    -0.64200
O853        O  0.70712106  0.03102186  0.35084963    -0.83500
C854        C  0.83444760  0.44791808  0.23371294     0.88800
C855        C  0.75566547  0.44908488  0.15682295     1.10300
H856        H  0.75645426  0.48323234  0.30140587     0.42100
O857        O  0.73379749  0.49366359  0.28610349    -1.06100
O858        O  0.71110883  0.05111148  0.25119760    -0.62800
Ni859      Ni  0.76934081  0.02783839  0.26094568     1.26300
O860        O  0.78852360  0.44741235  0.24828965    -0.63000
O861        O  0.77181976  0.05019522  0.30935503    -0.75300
C862        C  0.85292438  0.05344637  0.21926523     0.88200
O863        O  0.80856085  0.05964471  0.23409538    -0.62500
Ni864      Ni  0.67411182  0.50054376  0.32205237     1.27400
Ni865      Ni  0.73029262  0.47068249  0.23854264     1.26100
H866        H  0.74317604  0.01528790  0.19809054     0.42700
C867        C  0.75265874  0.34434019  0.02312172     0.49100
H868        H  0.75270335  0.31864394  0.02318766     0.00100
C869        C  0.75260312  0.40448920  0.02325761     0.49100
H870        H  0.75259689  0.43018520  0.02343815     0.00100
C871        C  0.74362955  0.35849870  0.06493270    -0.13600
C872        C  0.80240897  0.35863718  0.00446035    -0.13400
C873        C  0.71256850  0.35870080  0.00088795    -0.13800
C874        C  0.74359775  0.39021586  0.06500428    -0.13700
C875        C  0.80238206  0.39026491  0.00453320    -0.13300
C876        C  0.71254024  0.39016901  0.00096043    -0.13600
O877        O  0.63496102  0.27779795  0.29687126    -0.77300
O878        O  0.80862376  0.18887410  0.23383567    -0.61900
O879        O  0.73386436  0.25485615  0.28583785    -1.08600
C880        C  0.75574020  0.29946171  0.15658222     1.09600
O881        O  0.86479845  0.22070975  0.20207729    -0.75200
O882        O  0.85298040  0.28205663  0.20664482    -0.62700
Ni883      Ni  0.67418365  0.24798255  0.32179155     1.34900
C884        C  0.83451948  0.30059770  0.23347372     0.88400
O885        O  0.77187722  0.19832595  0.30910069    -0.75700
O886        O  0.70720952  0.21752698  0.35060467    -0.86000
C887        C  0.85298838  0.19507092  0.21900636     0.87900
O888        O  0.64679697  0.21645329  0.29234840    -0.64200
O889        O  0.79257634  0.28102439  0.14837884    -0.83500
C890        C  0.66525164  0.19791656  0.26551251     0.88800
C891        C  0.74403478  0.19908202  0.34240272     1.10300
H892        H  0.74324261  0.23323275  0.19781959     0.42100
O893        O  0.76589964  0.24366409  0.21312278    -1.06100
O894        O  0.78858761  0.30111140  0.24803066    -0.62800
Ni895      Ni  0.73035589  0.27783818  0.23828191     1.26300
O896        O  0.71117544  0.19741178  0.25093542    -0.63000
O897        O  0.72787723  0.30019689  0.18987361    -0.75300
C898        C  0.64677200  0.30344409  0.27996444     0.88200
O899        O  0.69113521  0.30964336  0.26513403    -0.62500
Ni900      Ni  0.82558581  0.25054563  0.17717483     1.27400
Ni901      Ni  0.76940543  0.22068194  0.26068314     1.26100
H902        H  0.75652041  0.26528536  0.30113578     0.42700
C903        C  0.74711312  0.15448769  0.47596666     0.49100
H904        H  0.74712040  0.18018368  0.47578463     0.00100
C905        C  0.74705457  0.09433870  0.47610625     0.49100
H906        H  0.74700858  0.06864245  0.47604214     0.00100
C907        C  0.75611417  0.14021322  0.43422079    -0.13600
C908        C  0.78717759  0.14016740  0.49826230    -0.13400
C909        C  0.69733446  0.14026464  0.49469417    -0.13800
C910        C  0.75608069  0.10849604  0.43429423    -0.13700
C911        C  0.78714779  0.10869924  0.49833672    -0.13300
C912        C  0.69730607  0.10863690  0.49476900    -0.13600
C913        C  0.75361411  0.17729689  0.37249259    -0.09600
C914        C  0.75717033  0.15934219  0.39918259    -0.11200
C915        C  0.74617530  0.32127227  0.12651785    -0.09600
C916        C  0.74260434  0.33927736  0.09988530    -0.11200
C917        C  0.74608830  0.42730039  0.12673225    -0.09600
C918        C  0.74253581  0.40934574  0.10004187    -0.11200
C919        C  0.75709815  0.08927416  0.39934303    -0.09600
C920        C  0.75352317  0.07126922  0.37271129    -0.11200
C921        C  0.57477468  0.34025918  0.26376617    -0.09600
C922        C  0.60770886  0.32443308  0.27351905    -0.11200
C923        C  0.86820213  0.32272824  0.24659432    -0.09600
C924        C  0.90235029  0.34003221  0.24989427    -0.11200
C925        C  0.90229560  0.40847737  0.25005296    -0.09600
C926        C  0.86812840  0.42577794  0.24680825    -0.11200
C927        C  0.57471868  0.40828727  0.26392191    -0.09600
C928        C  0.60764370  0.42409286  0.27373386    -0.11200
C929        C  0.61821313  0.17599424  0.49659364    -0.09600
C930        C  0.65236052  0.15868983  0.49989423    -0.11200
C931        C  0.82478665  0.15846046  0.51376045    -0.09600
C932        C  0.85772045  0.17428624  0.52351433    -0.11200
C933        C  0.64206341  0.32462873  0.97549326    -0.09600
C934        C  0.67498848  0.34043436  0.98530505    -0.11200
C935        C  0.84741171  0.34024430  0.99917405    -0.09600
C936        C  0.88157893  0.32294378  0.00241891    -0.11200
C937        C  0.00361938  0.32142099  0.12249478    -0.09600
C938        C  0.00717158  0.33937572  0.14918517    -0.11200
C939        C  0.59740465  0.15847660  0.24917052    -0.09600
C940        C  0.63157166  0.17577697  0.25241580    -0.11200
C941        C  0.89205519  0.17409428  0.22549330    -0.09600
C942        C  0.92497965  0.15828885  0.23530675    -0.11200
C943        C  0.92492053  0.09026116  0.23546641    -0.09600
C944        C  0.89198675  0.07443527  0.22571262    -0.11200
C945        C  0.59734674  0.09003184  0.24933298    -0.10000
C946        C  0.63149409  0.07272739  0.25263356    -0.11200
C947        C  0.49260940  0.15944736  0.34988392    -0.09600
C948        C  0.49618466  0.17745219  0.37651568    -0.11200
C949        C  0.82472742  0.09043260  0.51392002    -0.09600
C950        C  0.85765178  0.07462703  0.52373327    -0.11200
C951        C  0.65230248  0.09024493  0.50005652    -0.09600
C952        C  0.61813517  0.07294473  0.49681143    -0.11200
C953        C  0.49609329  0.07142472  0.37673442    -0.09600
C954        C  0.49253710  0.08937941  0.35004446    -0.11200
C955        C  0.84735686  0.40868931  0.99933274    -0.09600
C956        C  0.88150479  0.42599340  0.00263291    -0.11200
C957        C  0.67493237  0.40846226  0.98546079    -0.09600
C958        C  0.64199815  0.42428827  0.97570777    -0.11200
C959        C  0.00353232  0.42744944  0.12270914    -0.09600
C960        C  0.00710305  0.40944429  0.14934172    -0.11200
O961        O  0.88490866  0.02801164  0.54714934    -0.77300
O962        O  0.55857191  0.43907816  0.48409272    -0.61900
O963        O  0.98380729  0.00505739  0.53610380    -1.08600
C964        C  0.50567265  0.04963963  0.90682423     1.09600
O965        O  0.61474624  0.47092348  0.95235550    -0.75200
O966        O  0.60291014  0.03226824  0.95687897    -0.62700
Ni967      Ni  0.92412148  0.99817604  0.57205208     1.34900
C968        C  0.58445529  0.05080510  0.98371461     0.88400
O969        O  0.52182999  0.44852471  0.55935318    -0.75700
O970        O  0.95713141  0.46769749  0.60084825    -0.86000
C971        C  0.60293517  0.44527733  0.46926219     0.87900
O972        O  0.89672669  0.46666486  0.54258265    -0.64200
O973        O  0.54249813  0.03119483  0.89862240    -0.83500
C974        C  0.91518747  0.44812393  0.51575351     0.88800
C975        C  0.99396732  0.44926002  0.59264473     1.10300
H976        H  0.49318666  0.48343600  0.94809059     0.42100
O977        O  0.51584274  0.49386533  0.96338871    -1.06100
O978        O  0.53853143  0.05130993  0.99829149    -0.62800
Ni979      Ni  0.98030162  0.02803961  0.98854357     1.26300
O980        O  0.96111926  0.44761030  0.50119632    -0.63000
O981        O  0.97782999  0.05039565  0.94012615    -0.75300
C982        C  0.89671876  0.05365056  0.03022030     0.88200
O983        O  0.94108341  0.05984745  0.01539116    -0.62500
Ni984      Ni  0.57552378  0.50073910  0.92743537     1.27400
Ni985      Ni  0.51935127  0.47088339  0.51094480     1.26100
H986        H  0.00646413  0.01548853  0.55140682     0.42700
C987        C  0.50259405  0.09423384  0.77326031     0.49100
H988        H  0.50258673  0.06853784  0.77344230     0.00100
C989        C  0.00265253  0.15438283  0.77312082     0.49100
H990        H  0.00269853  0.18007908  0.77318501     0.00100
C991        C  0.99359297  0.10850829  0.81500619    -0.13600
C992        C  0.55237275  0.10845689  0.75453290    -0.13400
C993        C  0.96252950  0.10855417  0.75096467    -0.13800
C994        C  0.49362652  0.14022546  0.81493278    -0.13700
C995        C  0.55240114  0.14008461  0.75445809    -0.13300
C996        C  0.96255928  0.14002231  0.75089032    -0.13600
O997        O  0.61480734  0.27801323  0.95207782    -0.77300
O998        O  0.94114634  0.18907676  0.01513150    -0.61900
O999        O  0.51590938  0.25505804  0.96312318    -1.08600
C1000       C  0.99404184  0.29963642  0.59240411     1.09600
O1001       O  0.88497098  0.22092039  0.54687008    -0.75200
O1002       O  0.89680511  0.28226546  0.54234891    -0.62700
Ni1003     Ni  0.57559539  0.24817773  0.92717463     1.34900
C1004       C  0.91525947  0.30080350  0.51551412     0.88400
O1005       O  0.97788755  0.19852617  0.93987188    -0.75700
O1006       O  0.54258658  0.21769943  0.89837753    -0.86000
C1007       C  0.89678282  0.19527510  0.02996171     0.87900
O1008       O  0.60299071  0.21666618  0.95664396    -0.64200
O1009       O  0.95721725  0.28119076  0.60060523    -0.83500
C1010       C  0.58453012  0.19812452  0.98347272     0.88800
C1011       C  0.50575029  0.19926204  0.90658043     1.10300
H1012       H  0.00653041  0.23343391  0.55113568     0.42100
O1013       O  0.98387398  0.24386363  0.53583780    -1.06100
O1014       O  0.96118343  0.30130907  0.50093716    -0.62800
Ni1015     Ni  0.51941427  0.27803899  0.51068412     1.26300
O1016       O  0.53859822  0.19761003  0.99802933    -0.63000
O1017       O  0.52188485  0.30039380  0.55910229    -0.75300
C1018       C  0.60299675  0.30365169  0.46900712     0.88200
O1019       O  0.55863212  0.30984787  0.48383719    -0.62500
Ni1020     Ni  0.92419261  0.25073559  0.57179130     1.27400
Ni1021     Ni  0.98036622  0.22088313  0.98828106     1.26100
H1022       H  0.49325254  0.26548943  0.94782063     0.42700
C1023       C  0.49704845  0.40438129  0.72610520     0.49100
H1024       H  0.49700386  0.43007757  0.72603919     0.00100
C1025       C  0.99710411  0.34423234  0.72596941     0.49100
H1026       H  0.99711035  0.31853635  0.72578894     0.00100
C1027       C  0.00607781  0.39022283  0.68429423    -0.13600
C1028       C  0.53713866  0.39002078  0.74833900    -0.13400
C1029       C  0.94729828  0.39008437  0.74476663    -0.13800
C1030       C  0.50610957  0.35850565  0.68422268    -0.13700
C1031       C  0.53716684  0.35855257  0.74826665    -0.13300
C1032       C  0.94732517  0.35845664  0.74469379    -0.13600
O1033       O  0.86473619  0.02780124  0.70235671    -0.77300
O1034       O  0.69107500  0.43887362  0.76538970    -0.61900
O1035       O  0.76583276  0.00485807  0.71338871    -1.08600
C1036       C  0.74395725  0.04945916  0.84264665     1.09600
O1037       O  0.63489983  0.47070833  0.79714895    -0.75200
O1038       O  0.64671653  0.03205546  0.79258342    -0.62700
Ni1039     Ni  0.82551463  0.99798589  0.67743569     1.34900
C1040       C  0.66517701  0.05059709  0.76575457     0.88400
O1041       O  0.72782230  0.44832758  0.69012460    -0.75700
O1042       O  0.79249009  0.46753057  0.64862190    -0.86000
C1043       C  0.64671035  0.44506978  0.78021977     0.87900
O1044       O  0.85290203  0.46645621  0.70687838    -0.64200
O1045       O  0.70712102  0.03102174  0.85084963    -0.83500
C1046       C  0.83444761  0.44791804  0.73371297     0.88800
C1047       C  0.75566546  0.44908493  0.65682291     1.10300
H1048       H  0.75645426  0.48323222  0.80140582     0.42100
O1049       O  0.73379752  0.49366352  0.78610346    -1.06100
O1050       O  0.71110883  0.05111151  0.75119769    -0.62800
Ni1051     Ni  0.76934073  0.02783834  0.76094574     1.26300
O1052       O  0.78852357  0.44741238  0.74828966    -0.63000
O1053       O  0.77181979  0.05019508  0.80935511    -0.75300
C1054       C  0.85292432  0.05344641  0.71926524     0.88200
O1055       O  0.80856082  0.05964466  0.73409557    -0.62500
Ni1056     Ni  0.67411187  0.50054366  0.82205234     1.27400
Ni1057     Ni  0.73029263  0.47068253  0.73854258     1.26100
H1058       H  0.74317603  0.01528808  0.69809045     0.42700
C1059       C  0.75265870  0.34434020  0.52312169     0.49100
H1060       H  0.75270327  0.31864394  0.52318757     0.00100
C1061       C  0.75260311  0.40448922  0.52325759     0.49100
H1062       H  0.75259690  0.43018522  0.52343813     0.00100
C1063       C  0.74362953  0.35849869  0.56493266    -0.13600
C1064       C  0.80240893  0.35863720  0.50446031    -0.13400
C1065       C  0.71256842  0.35870082  0.50088798    -0.13800
C1066       C  0.74359765  0.39021587  0.56500427    -0.13700
C1067       C  0.80238205  0.39026493  0.50453319    -0.13300
C1068       C  0.71254024  0.39016903  0.50096041    -0.13600
O1069       O  0.63496097  0.27779794  0.79687129    -0.77300
O1070       O  0.80862380  0.18887406  0.73383555    -0.61900
O1071       O  0.73386447  0.25485615  0.78583790    -1.08600
C1072       C  0.75574006  0.29946160  0.65658215     1.09600
O1073       O  0.86479851  0.22070984  0.70207743    -0.75200
O1074       O  0.85298036  0.28205670  0.70664485    -0.62700
Ni1075     Ni  0.67418369  0.24798256  0.82179159     1.34900
C1076       C  0.83451945  0.30059778  0.73347378     0.88400
O1077       O  0.77187735  0.19832594  0.80910066    -0.75700
O1078       O  0.70720956  0.21752693  0.85060463    -0.86000
C1079       C  0.85298845  0.19507095  0.71900639     0.87900
O1080       O  0.64679703  0.21645333  0.79234841    -0.64200
O1081       O  0.79257619  0.28102427  0.64837874    -0.83500
C1082       C  0.66525168  0.19791657  0.76551254     0.88800
C1083       C  0.74403484  0.19908200  0.84240267     1.10300
H1084       H  0.74324266  0.23323276  0.69781950     0.42100
O1085       O  0.76589969  0.24366406  0.71312275    -1.06100
O1086       O  0.78858759  0.30111145  0.74803072    -0.62800
Ni1087     Ni  0.73035593  0.27783816  0.73828194     1.26300
O1088       O  0.71117549  0.19741171  0.75093549    -0.63000
O1089       O  0.72787719  0.30019683  0.68987360    -0.75300
C1090       C  0.64677195  0.30344409  0.77996452     0.88200
O1091       O  0.69113518  0.30964333  0.76513408    -0.62500
Ni1092     Ni  0.82558585  0.25054563  0.67717484     1.27400
Ni1093     Ni  0.76940551  0.22068190  0.76068311     1.26100
H1094       H  0.75652062  0.26528543  0.80113590     0.42700
C1095       C  0.74711312  0.15448771  0.97596661     0.49100
H1096       H  0.74712042  0.18018368  0.97578458     0.00100
C1097       C  0.74705461  0.09433868  0.97610618     0.49100
H1098       H  0.74700867  0.06864242  0.97604203     0.00100
C1099       C  0.75611416  0.14021322  0.93422075    -0.13600
C1100       C  0.78717761  0.14016737  0.99826227    -0.13400
C1101       C  0.69733443  0.14026463  0.99469407    -0.13800
C1102       C  0.75608070  0.10849603  0.93429418    -0.13700
C1103       C  0.78714782  0.10869919  0.99833667    -0.13300
C1104       C  0.69730608  0.10863688  0.99476890    -0.13600
C1105       C  0.75361413  0.17729687  0.87249255    -0.09600
C1106       C  0.75717016  0.15934219  0.89918257    -0.11200
C1107       C  0.74617510  0.32127217  0.62651778    -0.09600
C1108       C  0.74260429  0.33927729  0.59988524    -0.11200
C1109       C  0.74608807  0.42730049  0.62673218    -0.09600
C1110       C  0.74253552  0.40934580  0.60004184    -0.11200
C1111       C  0.75709797  0.08927415  0.89934299    -0.09600
C1112       C  0.75352308  0.07126915  0.87271132    -0.11200
C1113       C  0.57477467  0.34025923  0.76376617    -0.09600
C1114       C  0.60770883  0.32443312  0.77351906    -0.11200
C1115       C  0.86820211  0.32272832  0.74659439    -0.09600
C1116       C  0.90235035  0.34003225  0.74989425    -0.11200
C1117       C  0.90229559  0.40847734  0.75005310    -0.09600
C1118       C  0.86812833  0.42577787  0.74680840    -0.11200
C1119       C  0.57471856  0.40828732  0.76392183    -0.09600
C1120       C  0.60764369  0.42409281  0.77373379    -0.11200
C1121       C  0.61821305  0.17599424  0.99659373    -0.09600
C1122       C  0.65236046  0.15868978  0.99989420    -0.11200
C1123       C  0.82478662  0.15846040  0.01376052    -0.09600
C1124       C  0.85772046  0.17428616  0.02351443    -0.11200
C1125       C  0.64206344  0.32462867  0.47549315    -0.09600
C1126       C  0.67498842  0.34043433  0.48530508    -0.11200
C1127       C  0.84741170  0.34024433  0.49917407    -0.09600
C1128       C  0.88157888  0.32294379  0.50241887    -0.11200
C1129       C  0.00361918  0.32142097  0.62249475    -0.09600
C1130       C  0.00717156  0.33937572  0.64918507    -0.11200
C1131       C  0.59740474  0.15847656  0.74917054    -0.09600
C1132       C  0.63157166  0.17577699  0.75241585    -0.11200
C1133       C  0.89205527  0.17409435  0.72549338    -0.09600
C1134       C  0.92497970  0.15828886  0.73530671    -0.11200
C1135       C  0.92492046  0.09026121  0.73546630    -0.09600
C1136       C  0.89198661  0.07443540  0.72571252    -0.11200
C1137       C  0.59734675  0.09003182  0.74933296    -0.10000
C1138       C  0.63149414  0.07272744  0.75263372    -0.11200
C1139       C  0.49260913  0.15944728  0.84988398    -0.09600
C1140       C  0.49618436  0.17745217  0.87651571    -0.11200
C1141       C  0.82472744  0.09043258  0.01392007    -0.09600
C1142       C  0.85765194  0.07462711  0.02373331    -0.11200
C1143       C  0.65230250  0.09024492  0.00005636    -0.09600
C1144       C  0.61813524  0.07294470  0.99681128    -0.11200
C1145       C  0.49609339  0.07142475  0.87673440    -0.09600
C1146       C  0.49253711  0.08937937  0.85004436    -0.11200
C1147       C  0.84735688  0.40868931  0.49933276    -0.09600
C1148       C  0.88150479  0.42599341  0.50263286    -0.11200
C1149       C  0.67493243  0.40846229  0.48546078    -0.09600
C1150       C  0.64199820  0.42428826  0.47570767    -0.11200
C1151       C  0.00353236  0.42744948  0.62270916    -0.09600
C1152       C  0.00710312  0.40944428  0.64934166    -0.11200
O1153       O  0.88490875  0.52801173  0.04714945    -0.77300
O1154       O  0.55857187  0.93907815  0.98409270    -0.61900
O1155       O  0.98380751  0.50505744  0.03610385    -1.08600
C1156       C  0.50567259  0.54963956  0.40682420     1.09600
O1157       O  0.61474621  0.97092354  0.45235561    -0.75200
O1158       O  0.60291001  0.53226833  0.45687900    -0.62700
Ni1159     Ni  0.92412160  0.49817609  0.07205212     1.34900
C1160       C  0.58445513  0.55080514  0.48371473     0.88400
O1161       O  0.52183002  0.94852480  0.05935326    -0.75700
O1162       O  0.95713122  0.96769744  0.10084826    -0.86000
C1163       C  0.60293513  0.94527732  0.96926223     0.87900
O1164       O  0.89672673  0.96666495  0.04258252    -0.64200
O1165       O  0.54249806  0.53119473  0.39862235    -0.83500
C1166       C  0.91518747  0.94812391  0.01575346     0.88800
C1167       C  0.99396723  0.94926004  0.09264476     1.10300
H1168       H  0.49318677  0.98343613  0.44809067     0.42100
O1169       O  0.51584274  0.99386539  0.46338876    -1.06100
O1170       O  0.53853128  0.55130993  0.49829161    -0.62800
Ni1171     Ni  0.98030170  0.52803962  0.48854357     1.26300
O1172       O  0.96111926  0.94761019  0.00119631    -0.63000
O1173       O  0.97782999  0.55039556  0.44012610    -0.75300
C1174       C  0.89671874  0.55365058  0.53022030     0.88200
O1175       O  0.94108335  0.55984746  0.51539109    -0.62500
Ni1176     Ni  0.57552376  0.00073914  0.42743542     1.27400
Ni1177     Ni  0.51935118  0.97088337  0.01094478     1.26100
H1178       H  0.00646463  0.51548870  0.05140695     0.42700
C1179       C  0.50259396  0.59423388  0.27326040     0.49100
H1180       H  0.50258663  0.56853788  0.27344239     0.00100
C1181       C  0.00265255  0.65438286  0.27312083     0.49100
H1182       H  0.00269854  0.68007912  0.27318502     0.00100
C1183       C  0.99359302  0.60850833  0.31500627    -0.13600
C1184       C  0.55237267  0.60845693  0.25453295    -0.13400
C1185       C  0.96252952  0.60855417  0.25096476    -0.13800
C1186       C  0.49362649  0.64022550  0.31493280    -0.13700
C1187       C  0.55240107  0.64008465  0.25445809    -0.13300
C1188       C  0.96255926  0.64002232  0.25089039    -0.13600
O1189       O  0.61480725  0.77801313  0.45207790    -0.77300
O1190       O  0.94114631  0.68907677  0.51513145    -0.61900
O1191       O  0.51590944  0.75505803  0.46312314    -1.08600
C1192       C  0.99404186  0.79963644  0.09240416     1.09600
O1193       O  0.88497093  0.72092035  0.04687006    -0.75200
O1194       O  0.89680515  0.78226534  0.04234879    -0.62700
Ni1195     Ni  0.57559539  0.74817770  0.42717465     1.34900
C1196       C  0.91525954  0.80080348  0.01551413     0.88400
O1197       O  0.97788762  0.69852613  0.43987186    -0.75700
O1198       O  0.54258655  0.71769949  0.39837752    -0.86000
C1199       C  0.89678279  0.69527514  0.52996164     0.87900
O1200       O  0.60299078  0.71666617  0.45664394    -0.64200
O1201       O  0.95721723  0.78119078  0.10060528    -0.83500
C1202       C  0.58453019  0.69812449  0.48347263     0.88800
C1203       C  0.50575032  0.69926206  0.40658041     1.10300
H1204       H  0.00653063  0.73343376  0.05113604     0.42100
O1205       O  0.98387404  0.74386356  0.03583796    -1.06100
O1206       O  0.96118351  0.80130909  0.00093724    -0.62800
Ni1207     Ni  0.51941435  0.77803895  0.01068421     1.26300
O1208       O  0.53859826  0.69760994  0.49802918    -0.63000
O1209       O  0.52188490  0.80039379  0.05910237    -0.75300
C1210       C  0.60299669  0.80365172  0.96900719     0.88200
O1211       O  0.55863202  0.80984782  0.98383722    -0.62500
Ni1212     Ni  0.92419256  0.75073555  0.07179133     1.27400
Ni1213     Ni  0.98036627  0.72088311  0.48828099     1.26100
H1214       H  0.49325267  0.76548944  0.44782055     0.42700
C1215       C  0.49704849  0.90438136  0.22610529     0.49100
H1216       H  0.49700395  0.93007762  0.22603932     0.00100
C1217       C  0.99710406  0.84423234  0.22596948     0.49100
H1218       H  0.99711032  0.81853634  0.22578903     0.00100
C1219       C  0.00607763  0.89022285  0.18429431    -0.13600
C1220       C  0.53713872  0.89002076  0.24833903    -0.13400
C1221       C  0.94729825  0.89008440  0.24476671    -0.13800
C1222       C  0.50610948  0.85850566  0.18422277    -0.13700
C1223       C  0.53716690  0.85855254  0.24826664    -0.13300
C1224       C  0.94732513  0.85845664  0.24469390    -0.13600
O1225       O  0.86473609  0.52780116  0.20235675    -0.77300
O1226       O  0.69107502  0.93887359  0.26538982    -0.61900
O1227       O  0.76583267  0.50485802  0.21338873    -1.08600
C1228       C  0.74395707  0.54945927  0.34264666     1.09600
O1229       O  0.63489995  0.97070840  0.29714903    -0.75200
O1230       O  0.64671651  0.53205547  0.29258328    -0.62700
Ni1231     Ni  0.82551446  0.49798590  0.17743565     1.34900
C1232       C  0.66517699  0.55059710  0.26575443     0.88400
O1233       O  0.72782244  0.94832750  0.19012464    -0.75700
O1234       O  0.79249016  0.96753057  0.14862187    -0.86000
C1235       C  0.64671037  0.94506982  0.28021987     0.87900
O1236       O  0.85290208  0.96645628  0.20687837    -0.64200
O1237       O  0.70712085  0.53102185  0.35084967    -0.83500
C1238       C  0.83444768  0.94791808  0.23371294     0.88800
C1239       C  0.75566556  0.94908490  0.15682292     1.10300
H1240       H  0.75645408  0.98323240  0.30140576     0.42100
O1241       O  0.73379752  0.99366361  0.28610345    -1.06100
O1242       O  0.71110885  0.55111158  0.25119767    -0.62800
Ni1243     Ni  0.76934073  0.52783839  0.26094571     1.26300
O1244       O  0.78852367  0.94741235  0.24828967    -0.63000
O1245       O  0.77181964  0.55019518  0.30935510    -0.75300
C1246       C  0.85292431  0.55344636  0.21926523     0.88200
O1247       O  0.80856076  0.55964470  0.23409537    -0.62500
Ni1248     Ni  0.67411195  0.00054376  0.32205238     1.27400
Ni1249     Ni  0.73029271  0.97068248  0.23854261     1.26100
H1250       H  0.74317585  0.51528791  0.19809056     0.42700
C1251       C  0.75265875  0.84434022  0.02312170     0.49100
H1252       H  0.75270334  0.81864397  0.02318761     0.00100
C1253       C  0.75260309  0.90448921  0.02325763     0.49100
H1254       H  0.75259683  0.93018521  0.02343818     0.00100
C1255       C  0.74362959  0.85849871  0.06493270    -0.13600
C1256       C  0.80240898  0.85863720  0.00446036    -0.13400
C1257       C  0.71256851  0.85870082  0.00088792    -0.13800
C1258       C  0.74359767  0.89021587  0.06500430    -0.13700
C1259       C  0.80238206  0.89026494  0.00453324    -0.13300
C1260       C  0.71254029  0.89016902  0.00096040    -0.13600
O1261       O  0.63496092  0.77779797  0.29687128    -0.77300
O1262       O  0.80862383  0.68887413  0.23383571    -0.61900
O1263       O  0.73386420  0.75485615  0.28583786    -1.08600
C1264       C  0.75574010  0.79946169  0.15658222     1.09600
O1265       O  0.86479851  0.72070975  0.20207727    -0.75200
O1266       O  0.85298043  0.78205661  0.20664480    -0.62700
Ni1267     Ni  0.67418351  0.74798254  0.32179157     1.34900
C1268       C  0.83451951  0.80059768  0.23347372     0.88400
O1269       O  0.77187711  0.69832602  0.30910070    -0.75700
O1270       O  0.70720933  0.71752695  0.35060470    -0.86000
C1271       C  0.85298845  0.69507093  0.21900637     0.87900
O1272       O  0.64679702  0.71645325  0.29234837    -0.64200
O1273       O  0.79257622  0.78102435  0.14837882    -0.83500
C1274       C  0.66525174  0.69791652  0.26551249     0.88800
C1275       C  0.74403466  0.69908205  0.34240274     1.10300
H1276       H  0.74324271  0.73323289  0.19781967     0.42100
O1277       O  0.76589966  0.74366414  0.21312282    -1.06100
O1278       O  0.78858762  0.80111139  0.24803065    -0.62800
Ni1279     Ni  0.73035583  0.77783820  0.23828193     1.26300
O1280       O  0.71117553  0.69741176  0.25093538    -0.63000
O1281       O  0.72787721  0.80019692  0.18987364    -0.75300
C1282       C  0.64677195  0.80344414  0.27996458     0.88200
O1283       O  0.69113515  0.80964338  0.26513406    -0.62500
Ni1284     Ni  0.82558579  0.75054563  0.17717483     1.27400
Ni1285     Ni  0.76940540  0.72068198  0.26068316     1.26100
H1286       H  0.75652021  0.76528537  0.30113580     0.42700
C1287       C  0.74711312  0.65448767  0.47596665     0.49100
H1288       H  0.74712043  0.68018366  0.47578463     0.00100
C1289       C  0.74705465  0.59433868  0.47610625     0.49100
H1290       H  0.74700877  0.56864243  0.47604214     0.00100
C1291       C  0.75611426  0.64021321  0.43422078    -0.13600
C1292       C  0.78717756  0.64016740  0.49826234    -0.13400
C1293       C  0.69733445  0.64026461  0.49469414    -0.13800
C1294       C  0.75608079  0.60849603  0.43429423    -0.13700
C1295       C  0.78714783  0.60869924  0.49833672    -0.13300
C1296       C  0.69730607  0.60863686  0.49476898    -0.13600
C1297       C  0.75361409  0.67729690  0.37249257    -0.09600
C1298       C  0.75717029  0.65934219  0.39918258    -0.11200
C1299       C  0.74617521  0.82127225  0.12651786    -0.09600
C1300       C  0.74260442  0.83927735  0.09988528    -0.11200
C1301       C  0.74608823  0.92730044  0.12673223    -0.09600
C1302       C  0.74253564  0.90934575  0.10004190    -0.11200
C1303       C  0.75709803  0.58927416  0.39934305    -0.09600
C1304       C  0.75352293  0.57126921  0.37271134    -0.11200
C1305       C  0.57477468  0.84025917  0.26376618    -0.09600
C1306       C  0.60770885  0.82443313  0.27351913    -0.11200
C1307       C  0.86820221  0.82272820  0.24659434    -0.09600
C1308       C  0.90235035  0.84003219  0.24989429    -0.11200
C1309       C  0.90229559  0.90847737  0.25005296    -0.09600
C1310       C  0.86812841  0.92577794  0.24680825    -0.11200
C1311       C  0.57471861  0.90828729  0.26392193    -0.09600
C1312       C  0.60764363  0.92409289  0.27373389    -0.11200
C1313       C  0.61821317  0.67599424  0.49659366    -0.09600
C1314       C  0.65236051  0.65868978  0.49989423    -0.11200
C1315       C  0.82478656  0.65846048  0.51376048    -0.09600
C1316       C  0.85772040  0.67428626  0.52351432    -0.11200
C1317       C  0.64206327  0.82462876  0.97549329    -0.09600
C1318       C  0.67498839  0.84043439  0.98530507    -0.11200
C1319       C  0.84741173  0.84024430  0.99917405    -0.09600
C1320       C  0.88157894  0.82294379  0.00241892    -0.11200
C1321       C  0.00361928  0.82142098  0.12249480    -0.09600
C1322       C  0.00717161  0.83937570  0.14918518    -0.11200
C1323       C  0.59740469  0.65847661  0.24917053    -0.09600
C1324       C  0.63157175  0.67577693  0.25241580    -0.11200
C1325       C  0.89205525  0.67409426  0.22549329    -0.09600
C1326       C  0.92497972  0.65828885  0.23530673    -0.11200
C1327       C  0.92492052  0.59026114  0.23546640    -0.09600
C1328       C  0.89198667  0.57443529  0.22571264    -0.11200
C1329       C  0.59734668  0.59003183  0.24933299    -0.10000
C1330       C  0.63149410  0.57272744  0.25263355    -0.11200
C1331       C  0.49260922  0.65944735  0.34988394    -0.09600
C1332       C  0.49618449  0.67745220  0.37651569    -0.11200
C1333       C  0.82472755  0.59043265  0.51392002    -0.09600
C1334       C  0.85765196  0.57462713  0.52373331    -0.11200
C1335       C  0.65230244  0.59024491  0.50005649    -0.09600
C1336       C  0.61813506  0.57294475  0.49681142    -0.11200
C1337       C  0.49609335  0.57142472  0.37673442    -0.09600
C1338       C  0.49253699  0.58937940  0.35004446    -0.11200
C1339       C  0.84735680  0.90868934  0.99933274    -0.09600
C1340       C  0.88150473  0.92599342  0.00263290    -0.11200
C1341       C  0.67493248  0.90846228  0.98546076    -0.09600
C1342       C  0.64199821  0.92428828  0.97570779    -0.11200
C1343       C  0.00353220  0.92744943  0.12270914    -0.09600
C1344       C  0.00710288  0.90944428  0.14934171    -0.11200
O1345       O  0.88490877  0.52801173  0.54714941    -0.77300
O1346       O  0.55857190  0.93907815  0.48409276    -0.61900
O1347       O  0.98380749  0.50505743  0.53610383    -1.08600
C1348       C  0.50567266  0.54963963  0.90682424     1.09600
O1349       O  0.61474625  0.97092348  0.95235549    -0.75200
O1350       O  0.60291006  0.53226827  0.95687900    -0.62700
Ni1351     Ni  0.92412161  0.49817607  0.57205209     1.34900
C1352       C  0.58445520  0.55080517  0.98371462     0.88400
O1353       O  0.52182996  0.94852474  0.55935321    -0.75700
O1354       O  0.95713128  0.96769747  0.60084822    -0.86000
C1355       C  0.60293513  0.94527733  0.46926220     0.87900
O1356       O  0.89672668  0.96666482  0.54258266    -0.64200
O1357       O  0.54249812  0.53119480  0.89862240    -0.83500
C1358       C  0.91518742  0.94812389  0.51575351     0.88800
C1359       C  0.99396722  0.94926002  0.59264472     1.10300
H1360       H  0.49318667  0.98343600  0.94809061     0.42100
O1361       O  0.51584273  0.99386533  0.96338873    -1.06100
O1362       O  0.53853135  0.55130996  0.99829152    -0.62800
Ni1363     Ni  0.98030165  0.52803960  0.98854359     1.26300
O1364       O  0.96111923  0.94761025  0.50119629    -0.63000
O1365       O  0.97782996  0.55039563  0.94012613    -0.75300
C1366       C  0.89671875  0.55365053  0.03022029     0.88200
O1367       O  0.94108341  0.55984742  0.01539120    -0.62500
Ni1368     Ni  0.57552378  0.00073910  0.92743537     1.27400
Ni1369     Ni  0.51935115  0.97088337  0.51094478     1.26100
H1370       H  0.00646452  0.51548861  0.55140691     0.42700
C1371       C  0.50259395  0.59423385  0.77326033     0.49100
H1372       H  0.50258659  0.56853784  0.77344234     0.00100
C1373       C  0.00265256  0.65438285  0.77312079     0.49100
H1374       H  0.00269858  0.68007911  0.77318494     0.00100
C1375       C  0.99359300  0.60850834  0.81500621    -0.13600
C1376       C  0.55237266  0.60845687  0.75453288    -0.13400
C1377       C  0.96252944  0.60855418  0.75096469    -0.13800
C1378       C  0.49362651  0.64022548  0.81493278    -0.13700
C1379       C  0.55240109  0.64008460  0.75445807    -0.13300
C1380       C  0.96255926  0.64002232  0.75089035    -0.13600
O1381       O  0.61480730  0.77801324  0.95207786    -0.77300
O1382       O  0.94114630  0.68907676  0.01513153    -0.61900
O1383       O  0.51590949  0.75505800  0.96312321    -1.08600
C1384       C  0.99404197  0.79963639  0.59240412     1.09600
O1385       O  0.88497099  0.72092038  0.54687007    -0.75200
O1386       O  0.89680521  0.78226546  0.54234889    -0.62700
Ni1387     Ni  0.57559543  0.74817773  0.92717465     1.34900
C1388       C  0.91525959  0.80080350  0.51551411     0.88400
O1389       O  0.97788759  0.69852616  0.93987188    -0.75700
O1390       O  0.54258653  0.71769952  0.89837753    -0.86000
C1391       C  0.89678277  0.69527510  0.02996169     0.87900
O1392       O  0.60299080  0.71666617  0.95664396    -0.64200
O1393       O  0.95721735  0.78119075  0.60060523    -0.83500
C1394       C  0.58453020  0.69812451  0.98347272     0.88800
C1395       C  0.50575032  0.69926208  0.90658044     1.10300
H1396       H  0.00653047  0.73343393  0.55113573     0.42100
O1397       O  0.98387402  0.74386362  0.53583782    -1.06100
O1398       O  0.96118353  0.80130907  0.50093714    -0.62800
Ni1399     Ni  0.51941436  0.77803897  0.51068413     1.26300
O1400       O  0.53859829  0.69761000  0.99802931    -0.63000
O1401       O  0.52188497  0.80039374  0.55910232    -0.75300
C1402       C  0.60299679  0.80365168  0.46900710     0.88200
O1403       O  0.55863218  0.80984785  0.48383724    -0.62500
Ni1404     Ni  0.92419264  0.75073558  0.57179130     1.27400
Ni1405     Ni  0.98036625  0.72088311  0.98828108     1.26100
H1406       H  0.49325285  0.76548932  0.94782071     0.42700
C1407       C  0.49704850  0.90438130  0.72610522     0.49100
H1408       H  0.49700393  0.93007758  0.72603926     0.00100
C1409       C  0.99710404  0.84423234  0.72596941     0.49100
H1410       H  0.99711022  0.81853635  0.72578891     0.00100
C1411       C  0.00607771  0.89022285  0.68429425    -0.13600
C1412       C  0.53713871  0.89002077  0.74833900    -0.13400
C1413       C  0.94729826  0.89008436  0.74476665    -0.13800
C1414       C  0.50610959  0.85850568  0.68422268    -0.13700
C1415       C  0.53716688  0.85855255  0.74826666    -0.13300
C1416       C  0.94732512  0.85845663  0.74469379    -0.13600
O1417       O  0.86473605  0.52780123  0.70235670    -0.77300
O1418       O  0.69107506  0.93887359  0.76538971    -0.61900
O1419       O  0.76583269  0.50485808  0.71338872    -1.08600
C1420       C  0.74395713  0.54945918  0.84264666     1.09600
O1421       O  0.63489988  0.97070833  0.79714895    -0.75200
O1422       O  0.64671650  0.53205544  0.79258340    -0.62700
Ni1423     Ni  0.82551448  0.49798590  0.67743567     1.34900
C1424       C  0.66517701  0.55059708  0.76575457     0.88400
O1425       O  0.72782244  0.94832755  0.69012458    -0.75700
O1426       O  0.79249027  0.96753056  0.64862191    -0.86000
C1427       C  0.64671041  0.94506976  0.78021979     0.87900
O1428       O  0.85290218  0.96645621  0.70687838    -0.64200
O1429       O  0.70712093  0.53102174  0.85084964    -0.83500
C1430       C  0.83444771  0.94791806  0.73371297     0.88800
C1431       C  0.75566563  0.94908491  0.65682291     1.10300
H1432       H  0.75645390  0.98323229  0.80140573     0.42100
O1433       O  0.73379737  0.99366355  0.78610342    -1.06100
O1434       O  0.71110882  0.55111149  0.75119774    -0.62800
Ni1435     Ni  0.76934075  0.52783833  0.76094576     1.26300
O1436       O  0.78852365  0.94741241  0.74828965    -0.63000
O1437       O  0.77181972  0.55019508  0.80935513    -0.75300
C1438       C  0.85292424  0.55344641  0.71926522     0.88200
O1439       O  0.80856075  0.55964468  0.73409557    -0.62500
Ni1440     Ni  0.67411184  0.00054368  0.82205236     1.27400
Ni1441     Ni  0.73029264  0.97068252  0.73854255     1.26100
H1442       H  0.74317584  0.51528808  0.69809046     0.42700
C1443       C  0.75265868  0.84434018  0.52312168     0.49100
H1444       H  0.75270326  0.81864393  0.52318757     0.00100
C1445       C  0.75260308  0.90448920  0.52325759     0.49100
H1446       H  0.75259686  0.93018520  0.52343813     0.00100
C1447       C  0.74362953  0.85849868  0.56493266    -0.13600
C1448       C  0.80240895  0.85863718  0.50446030    -0.13400
C1449       C  0.71256836  0.85870080  0.50088800    -0.13800
C1450       C  0.74359768  0.89021586  0.56500426    -0.13700
C1451       C  0.80238200  0.89026491  0.50453317    -0.13300
C1452       C  0.71254019  0.89016901  0.50096044    -0.13600
O1453       O  0.63496089  0.77779794  0.79687126    -0.77300
O1454       O  0.80862379  0.68887413  0.73383561    -0.61900
O1455       O  0.73386430  0.75485617  0.78583791    -1.08600
C1456       C  0.75574013  0.79946164  0.65658217     1.09600
O1457       O  0.86479852  0.72070983  0.70207741    -0.75200
O1458       O  0.85298028  0.78205669  0.70664486    -0.62700
Ni1459     Ni  0.67418353  0.74798254  0.82179159     1.34900
C1460       C  0.83451935  0.80059776  0.73347379     0.88400
O1461       O  0.77187721  0.69832602  0.80910066    -0.75700
O1462       O  0.70720939  0.71752694  0.85060467    -0.86000
C1463       C  0.85298845  0.69507096  0.71900639     0.87900
O1464       O  0.64679697  0.71645331  0.79234836    -0.64200
O1465       O  0.79257624  0.78102430  0.64837876    -0.83500
C1466       C  0.66525169  0.69791653  0.76551254     0.88800
C1467       C  0.74403475  0.69908205  0.84240269     1.10300
H1468       H  0.74324265  0.73323273  0.69781952     0.42100
O1469       O  0.76589963  0.74366408  0.71312275    -1.06100
O1470       O  0.78858750  0.80111144  0.74803072    -0.62800
Ni1471     Ni  0.73035583  0.77783815  0.73828193     1.26300
O1472       O  0.71117552  0.69741172  0.75093550    -0.63000
O1473       O  0.72787712  0.80019681  0.68987356    -0.75300
C1474       C  0.64677198  0.80344410  0.77996453     0.88200
O1475       O  0.69113522  0.80964331  0.76513411    -0.62500
Ni1476     Ni  0.82558582  0.75054562  0.67717484     1.27400
Ni1477     Ni  0.76940545  0.72068197  0.76068313     1.26100
H1478       H  0.75652040  0.76528548  0.80113592     0.42700
C1479       C  0.74711321  0.65448771  0.97596659     0.49100
H1480       H  0.74712055  0.68018371  0.97578458     0.00100
C1481       C  0.74705470  0.59433872  0.97610616     0.49100
H1482       H  0.74700881  0.56864247  0.97604201     0.00100
C1483       C  0.75611427  0.64021325  0.93422073    -0.13600
C1484       C  0.78717763  0.64016742  0.99826227    -0.13400
C1485       C  0.69733454  0.64026466  0.99469408    -0.13800
C1486       C  0.75608074  0.60849608  0.93429416    -0.13700
C1487       C  0.78714791  0.60869925  0.99833664    -0.13300
C1488       C  0.69730617  0.60863692  0.99476892    -0.13600
C1489       C  0.75361420  0.67729693  0.87249254    -0.09600
C1490       C  0.75717033  0.65934224  0.89918254    -0.11200
C1491       C  0.74617530  0.82127226  0.62651783    -0.09600
C1492       C  0.74260444  0.83927732  0.59988523    -0.11200
C1493       C  0.74608827  0.92730047  0.62673217    -0.09600
C1494       C  0.74253570  0.90934579  0.60004183    -0.11200
C1495       C  0.75709801  0.58927416  0.89934299    -0.09600
C1496       C  0.75352298  0.57126916  0.87271134    -0.11200
C1497       C  0.57477475  0.84025922  0.76376614    -0.09600
C1498       C  0.60770895  0.82443315  0.77351904    -0.11200
C1499       C  0.86820206  0.82272830  0.74659440    -0.09600
C1500       C  0.90235030  0.84003222  0.74989425    -0.11200
C1501       C  0.90229558  0.90847731  0.75005311    -0.09600
C1502       C  0.86812837  0.92577788  0.74680842    -0.11200
C1503       C  0.57471864  0.90828730  0.76392183    -0.09600
C1504       C  0.60764375  0.92409281  0.77373379    -0.11200
C1505       C  0.61821314  0.67599424  0.99659375    -0.09600
C1506       C  0.65236059  0.65868982  0.99989420    -0.11200
C1507       C  0.82478650  0.65846048  0.01376055    -0.09600
C1508       C  0.85772041  0.67428619  0.02351441    -0.11200
C1509       C  0.64206346  0.82462863  0.47549312    -0.09600
C1510       C  0.67498837  0.84043432  0.48530509    -0.11200
C1511       C  0.84741178  0.84024434  0.49917409    -0.09600
C1512       C  0.88157900  0.82294381  0.50241887    -0.11200
C1513       C  0.00361937  0.82142094  0.62249475    -0.09600
C1514       C  0.00717167  0.83937573  0.64918507    -0.11200
C1515       C  0.59740472  0.65847654  0.74917054    -0.09600
C1516       C  0.63157172  0.67577692  0.75241584    -0.11200
C1517       C  0.89205524  0.67409432  0.72549337    -0.09600
C1518       C  0.92497970  0.65828886  0.73530670    -0.11200
C1519       C  0.92492041  0.59026120  0.73546631    -0.09600
C1520       C  0.89198657  0.57443537  0.72571252    -0.11200
C1521       C  0.59734668  0.59003178  0.74933297    -0.10000
C1522       C  0.63149413  0.57272746  0.75263371    -0.11200
C1523       C  0.49260927  0.65944731  0.84988398    -0.09600
C1524       C  0.49618453  0.67745217  0.87651572    -0.11200
C1525       C  0.82472750  0.59043262  0.01392006    -0.09600
C1526       C  0.85765194  0.57462709  0.02373330    -0.11200
C1527       C  0.65230255  0.59024496  0.00005634    -0.09600
C1528       C  0.61813517  0.57294482  0.99681125    -0.11200
C1529       C  0.49609344  0.57142476  0.87673439    -0.09600
C1530       C  0.49253707  0.58937938  0.85004437    -0.11200
C1531       C  0.84735680  0.90868933  0.49933275    -0.09600
C1532       C  0.88150470  0.92599342  0.50263287    -0.11200
C1533       C  0.67493242  0.90846229  0.48546075    -0.09600
C1534       C  0.64199822  0.92428826  0.47570764    -0.11200
C1535       C  0.00353219  0.92744947  0.62270915    -0.09600
C1536       C  0.00710294  0.90944430  0.64934168    -0.11200
loop_ 
_geom_bond_atom_site_label_1 
_geom_bond_atom_site_label_2 
_geom_bond_distance 
_geom_bond_site_symmetry_2 
_ccdc_geom_bond_type 
O1           Ni7   1.935   1_545  S
O1          C214   1.271       .  A
O2          Ni25   1.895   1_556  S
O2           C11   1.264       .  A
O3           Ni7   1.911   1_545  S
O3        Ni1177   1.903   1_545  S
O3         Ni211   1.912   1_554  S
O3           H26   0.966       .  S
C4           O13   1.276       .  A
C4          O789   1.273   1_455  A
C4          C185   1.440   1_455  S
O5          Ni24   1.935       .  S
O5          C203   1.271       .  A
O6         Ni408   1.900       .  S
O6            C8   1.266       .  A
Ni7         O394   1.930       .  S
Ni7         O396   1.900       .  S
C8           O18   1.272       .  A
C8          C184   1.432       .  S
O9          Ni25   1.919       .  S
O9          C783   1.273   1_455  A
O10        Ni391   1.930       .  S
O10          C15   1.276       .  A
C11         O197   1.271       .  A
C11         C190   1.430       .  S
O12        Ni391   1.900       .  S
O12          C14   1.266       .  A
O13        Ni408   1.930       .  S
C14          O20   1.272       .  A
C14         C188   1.432       .  S
C15         O777   1.273       .  A
C15         C191   1.440       .  S
H16          O17   0.966   1_655  S
O17         Ni24   1.911       .  S
O17        Ni217   1.912       .  S
O17       Ni1171   1.903   1_455  S
O18        Ni787   1.932   1_455  S
Ni19         O23   1.895       .  S
Ni19         O21   1.919       .  S
Ni19        O786   1.932       .  S
Ni19        O195   1.912       .  S
Ni19       O1169   1.903   1_545  S
O20        Ni793   1.932       .  S
O21         C772   1.273       .  A
C22          O23   1.264       .  A
C22         O193   1.271       .  A
C22         C182   1.430       .  S
Ni24        O390   1.900       .  S
Ni24        O397   1.930       .  S
Ni25        O788   1.932   1_455  S
Ni25       O1155   1.903   1_455  S
Ni25        O209   1.912   1_554  S
C27          H28   1.112       .  S
C27          C32   1.536       .  S
C27         C801   1.532   1_455  S
C27         C799   1.538   1_455  S
C29          H30   1.112       .  S
C29          C36   1.532       .  S
C29         C803   1.536       .  S
C29         C802   1.538       .  S
C31         C795   1.538       .  S
C31         C802   1.373       .  D
C31         C954   1.449       .  S
C32          C35   1.369       .  D
C32         C177   1.443       .  S
C33         C795   1.532       .  S
C33          C36   1.362       .  D
C33         C175   1.441       .  S
C34         C797   1.538   1_655  S
C34         C799   1.373       .  D
C34         C179   1.448       .  S
C35         C797   1.536       .  S
C35         C171   1.443       .  S
C36         C174   1.441       .  S
O37         Ni43   1.935       .  S
O37         C250   1.271       .  A
O38         Ni61   1.895       .  S
O38          C47   1.264       .  A
O39         Ni43   1.911       .  S
O39        Ni829   1.903   1_455  S
O39        Ni247   1.912       .  S
O39          H62   0.966   1_455  S
C40          O49   1.276       .  A
C40         O825   1.273       .  A
C40         C169   1.440       .  S
O41         Ni60   1.935       .  S
O41         C239   1.271       .  A
O42         Ni60   1.900       .  S
O42          C44   1.266       .  A
Ni43         O46   1.930       .  S
Ni43         O48   1.900       .  S
C44          O54   1.272       .  A
C44         C168   1.432       .  S
O45         Ni61   1.919       .  S
O45         C819   1.273       .  A
O46          C51   1.276       .  A
C47         O233   1.271       .  A
C47         C164   1.430       .  S
O48          C50   1.266       .  A
O49         Ni60   1.930       .  S
C50          O56   1.272       .  A
C50         C161   1.432       .  S
C51         O813   1.273   1_455  A
C51         C180   1.440   1_455  S
H52          O53   0.966       .  S
O53         Ni60   1.911       .  S
O53        Ni253   1.912   1_554  S
O53        Ni823   1.903       .  S
O54        Ni823   1.932       .  S
Ni55         O59   1.895   1_554  S
Ni55         O57   1.919       .  S
Ni55        O822   1.932   1_455  S
Ni55        O231   1.912   1_554  S
Ni55        O821   1.903   1_455  S
O56        Ni829   1.932   1_455  S
O57         C808   1.273   1_455  A
C58          O59   1.264       .  A
C58         O229   1.271       .  A
C58         C165   1.430       .  S
Ni61        O824   1.932       .  S
Ni61        O807   1.903       .  S
Ni61        O245   1.912       .  S
C63          H64   1.112       .  S
C63          C68   1.532   1_655  S
C63         C837   1.536       .  S
C63         C835   1.538   1_655  S
C65          H66   1.112       .  S
C65          C72   1.536       .  S
C65         C839   1.532       .  S
C65         C838   1.538       .  S
C67         C831   1.538       .  S
C67         C838   1.373       .  D
C67         C192   1.448       .  S
C68          C71   1.362       .  D
C68         C159   1.441       .  S
C69         C831   1.536       .  S
C69          C72   1.369       .  D
C69         C157   1.443       .  S
C70         C833   1.538   1_455  S
C70         C835   1.373       .  D
C70         C938   1.449       .  S
C71         C833   1.532   1_455  S
C71         C153   1.441       .  S
C72         C156   1.443       .  S
O73         Ni79   1.935   1_545  S
O73          C94   1.271       .  A
O74         Ni97   1.895       .  S
O74          C83   1.264       .  A
O75         Ni79   1.911   1_545  S
O75         Ni91   1.912       .  S
O75        Ni481   1.903   1_545  S
O75          H98   0.966       .  S
C76          O93   1.273       .  A
C76          O85   1.276       .  A
C76         C152   1.440       .  S
O77         Ni96   1.935       .  S
O77          C83   1.271       .  A
O78        Ni480   1.900       .  S
O78          C80   1.266       .  A
Ni79        O466   1.930       .  S
Ni79        O468   1.900       .  S
C80          O90   1.272       .  A
C80         C178   1.432       .  S
O81         Ni97   1.919       .  S
O81          C87   1.273       .  A
O82        Ni463   1.930       .  S
O82          C87   1.276       .  A
C83         C160   1.430       .  S
O84        Ni463   1.900       .  S
O84          C86   1.266       .  A
O85        Ni480   1.930       .  S
C86          O92   1.272       .  A
C86         C158   1.432       .  S
C87         C149   1.440       .  S
H88          O89   0.966       .  S
O89         Ni97   1.912       .  S
O89         Ni96   1.911       .  S
O89        Ni475   1.903       .  S
O90         Ni91   1.932       .  S
Ni91         O95   1.895       .  S
Ni91         O93   1.919       .  S
Ni91        O473   1.903   1_545  S
O92         Ni97   1.932       .  S
C94          O95   1.264       .  A
C94         C176   1.430       .  S
Ni96        O462   1.900       .  S
Ni96        O469   1.930       .  S
Ni97        O459   1.903       .  S
C99         H100   1.112       .  S
C99         C105   1.532       .  S
C99         C104   1.536       .  S
C99         C103   1.538       .  S
C101        H102   1.112       .  S
C101        C107   1.536       .  S
C101        C106   1.538       .  S
C101        C108   1.532       .  S
C103        C106   1.373       .  D
C103        C148   1.448       .  S
C104        C107   1.369       .  D
C104        C167   1.443   1_554  S
C105        C108   1.362       .  D
C105        C166   1.441   1_554  S
C106        C150   1.449       .  S
C107        C187   1.443   1_554  S
C108        C189   1.441   1_554  S
O109       Ni115   1.935       .  S
O109        C130   1.271       .  A
O110       Ni133   1.895       .  S
O110        C119   1.264       .  A
O111       Ni115   1.911       .  S
O111       Ni133   1.903       .  S
O111       Ni127   1.912       .  S
O111        H134   0.966       .  S
C112        O129   1.273       .  A
C112        O121   1.276       .  A
C112        C147   1.440       .  S
O113       Ni132   1.935       .  S
O113        C119   1.271       .  A
O114       Ni132   1.900       .  S
O114        C116   1.266       .  A
Ni115       O118   1.930       .  S
Ni115       O120   1.900       .  S
C116        O126   1.272       .  A
C116        C155   1.432       .  S
O117       Ni133   1.919       .  S
O117        C123   1.273       .  A
O118        C123   1.276       .  A
C119        C173   1.430       .  S
O120        C122   1.266       .  A
O121       Ni132   1.930       .  S
C122        O128   1.272       .  A
C122        C172   1.432       .  S
C123        C145   1.440       .  S
H124        O125   0.966       .  S
O125       Ni133   1.912       .  S
O125       Ni127   1.903       .  S
O125       Ni132   1.911       .  S
O126       Ni127   1.932       .  S
Ni127       O131   1.895       .  S
Ni127       O129   1.919       .  S
O128       Ni133   1.932       .  S
C130        O131   1.264       .  A
C130        C154   1.430       .  S
C135        H136   1.112       .  S
C135        C141   1.536       .  S
C135        C140   1.532       .  S
C135        C139   1.538       .  S
C137        H138   1.112       .  S
C137        C143   1.532       .  S
C137        C142   1.538       .  S
C137        C144   1.536       .  S
C139        C142   1.373       .  D
C139        C146   1.449       .  S
C140        C143   1.362       .  D
C140        C163   1.441       .  S
C141        C144   1.369       .  D
C141        C162   1.443       .  S
C142        C151   1.449       .  S
C143        C181   1.441       .  S
C144        C183   1.443       .  S
C145        C146   1.209       .  T
C147        C148   1.209       .  T
C149        C150   1.209       .  T
C151        C152   1.209       .  T
C153        C154   1.203       .  T
C155        C156   1.204       .  T
C157        C158   1.204       .  T
C159        C160   1.203       .  T
C161        C162   1.204       .  T
C163        C164   1.203       .  T
C165        C166   1.203       .  T
C167        C168   1.204   1_556  T
C169        C170   1.209       .  T
C170        C838   1.449       .  S
C171        C172   1.204       .  T
C173        C174   1.203       .  T
C175        C176   1.203       .  T
C177        C178   1.204       .  T
C179        C180   1.209       .  T
C181        C182   1.203       .  T
C183        C184   1.204       .  T
C185        C186   1.209       .  T
C186        C799   1.449       .  S
C187        C188   1.204   1_556  T
C189        C190   1.203       .  T
C191        C192   1.209       .  T
O193       Ni199   1.935   1_545  S
O194       Ni217   1.895       .  S
O194        C203   1.264       .  A
O195       Ni199   1.911   1_545  S
O195      Ni1369   1.903   1_545  S
O195        H218   0.966       .  S
C196        O981   1.273   1_455  A
C196        O205   1.276       .  A
C196        C377   1.440   1_455  S
O197       Ni216   1.935       .  S
O198       Ni600   1.900       .  S
O198        C200   1.266       .  A
Ni199       O586   1.930       .  S
Ni199       O588   1.900       .  S
C200        O210   1.272       .  A
C200        C376   1.432       .  S
O201       Ni217   1.919       .  S
O201        C975   1.273   1_455  A
O202       Ni583   1.930       .  S
O202        C207   1.276       .  A
C203        C382   1.430       .  S
O204       Ni583   1.900       .  S
O204        C206   1.266       .  A
O205       Ni600   1.930       .  S
C206        O212   1.272       .  A
C206        C380   1.432       .  S
C207        O969   1.273       .  A
C207        C383   1.440       .  S
H208        O209   0.966   1_655  S
O209      Ni1363   1.903   1_455  S
O209       Ni216   1.911       .  S
O210       Ni979   1.932   1_455  S
Ni211       O978   1.932       .  S
Ni211       O215   1.895   1_556  S
Ni211       O213   1.919       .  S
Ni211      O1361   1.903   1_545  S
O212       Ni985   1.932       .  S
O213        C964   1.273       .  A
C214        O215   1.264       .  A
C214        C374   1.430       .  S
Ni216       O582   1.900       .  S
Ni216       O589   1.930       .  S
Ni217       O980   1.932   1_455  S
Ni217      O1347   1.903   1_455  S
C219        H220   1.112       .  S
C219        C993   1.532   1_455  S
C219        C224   1.536       .  S
C219        C991   1.538   1_455  S
C221        H222   1.112       .  S
C221        C995   1.536       .  S
C221        C994   1.538       .  S
C221        C228   1.532       .  S
C223        C987   1.538       .  S
C223        C994   1.373       .  D
C223       C1146   1.449       .  S
C224        C227   1.369       .  D
C224        C369   1.443       .  S
C225        C987   1.532       .  S
C225        C228   1.362       .  D
C225        C367   1.441       .  S
C226        C989   1.538   1_655  S
C226        C991   1.373       .  D
C226        C371   1.448       .  S
C227        C989   1.536       .  S
C227        C363   1.443       .  S
C228        C366   1.441       .  S
O229       Ni235   1.935       .  S
O230       Ni253   1.895   1_554  S
O230        C239   1.264       .  A
O231       Ni235   1.911       .  S
O231      Ni1021   1.903   1_455  S
O231        H254   0.966   1_455  S
C232       O1017   1.273       .  A
C232        O241   1.276       .  A
C232        C361   1.440       .  S
O233       Ni252   1.935       .  S
O234       Ni252   1.900       .  S
O234        C236   1.266       .  A
Ni235       O238   1.930       .  S
Ni235       O240   1.900       .  S
C236        O246   1.272       .  A
C236        C360   1.432       .  S
O237       Ni253   1.919       .  S
O237       C1011   1.273       .  A
O238        C243   1.276       .  A
C239        C356   1.430       .  S
O240        C242   1.266       .  A
O241       Ni252   1.930       .  S
C242        O248   1.272       .  A
C242        C353   1.432       .  S
C243       O1005   1.273   1_455  A
C243        C372   1.440   1_455  S
H244        O245   0.966       .  S
O245      Ni1015   1.903       .  S
O245       Ni252   1.911       .  S
O246      Ni1015   1.932       .  S
Ni247      O1014   1.932   1_455  S
Ni247       O251   1.895       .  S
Ni247       O249   1.919       .  S
Ni247      O1013   1.903   1_455  S
O248      Ni1021   1.932   1_455  S
O249       C1000   1.273   1_455  A
C250        O251   1.264       .  A
C250        C357   1.430       .  S
Ni253      O1016   1.932       .  S
Ni253       O999   1.903       .  S
C255        H256   1.112       .  S
C255       C1029   1.536       .  S
C255        C260   1.532   1_655  S
C255       C1027   1.538   1_655  S
C257        H258   1.112       .  S
C257       C1031   1.532       .  S
C257       C1030   1.538       .  S
C257        C264   1.536       .  S
C259       C1023   1.538       .  S
C259       C1030   1.373       .  D
C259        C384   1.448       .  S
C260        C263   1.362       .  D
C260        C351   1.441       .  S
C261       C1023   1.536       .  S
C261        C264   1.369       .  D
C261        C349   1.443       .  S
C262       C1025   1.538   1_455  S
C262       C1027   1.373       .  D
C262       C1130   1.449       .  S
C263       C1025   1.532   1_455  S
C263        C345   1.441       .  S
C264        C348   1.443       .  S
O265       Ni271   1.935   1_545  S
O265        C286   1.271       .  A
O266       Ni289   1.895       .  S
O266        C275   1.264       .  A
O267       Ni271   1.911   1_545  S
O267       Ni673   1.903   1_545  S
O267       Ni283   1.912       .  S
O267        H290   0.966       .  S
C268        O285   1.273       .  A
C268        O277   1.276       .  A
C268        C344   1.440       .  S
O269       Ni288   1.935       .  S
O269        C275   1.271       .  A
O270       Ni672   1.900       .  S
O270        C272   1.266       .  A
Ni271       O658   1.930       .  S
Ni271       O660   1.900       .  S
C272        O282   1.272       .  A
C272        C370   1.432       .  S
O273       Ni289   1.919       .  S
O273        C279   1.273       .  A
O274       Ni655   1.930       .  S
O274        C279   1.276       .  A
C275        C352   1.430       .  S
O276       Ni655   1.900       .  S
O276        C278   1.266       .  A
O277       Ni672   1.930       .  S
C278        O284   1.272       .  A
C278        C350   1.432       .  S
C279        C341   1.440       .  S
H280        O281   0.966       .  S
O281       Ni289   1.912       .  S
O281       Ni667   1.903       .  S
O281       Ni288   1.911       .  S
O282       Ni283   1.932       .  S
Ni283       O287   1.895       .  S
Ni283       O285   1.919       .  S
Ni283       O665   1.903   1_545  S
O284       Ni289   1.932       .  S
C286        O287   1.264       .  A
C286        C368   1.430       .  S
Ni288       O654   1.900       .  S
Ni288       O661   1.930       .  S
Ni289       O651   1.903       .  S
C291        H292   1.112       .  S
C291        C297   1.532       .  S
C291        C296   1.536       .  S
C291        C295   1.538       .  S
C293        H294   1.112       .  S
C293        C299   1.536       .  S
C293        C298   1.538       .  S
C293        C300   1.532       .  S
C295        C298   1.373       .  D
C295        C340   1.448       .  S
C296        C299   1.369       .  D
C296        C359   1.443       .  S
C297        C300   1.362       .  D
C297        C358   1.441       .  S
C298        C342   1.449       .  S
C299        C379   1.443       .  S
C300        C381   1.441       .  S
O301       Ni307   1.935       .  S
O301        C322   1.271       .  A
O302       Ni325   1.895       .  S
O302        C311   1.264       .  A
O303       Ni307   1.911       .  S
O303       Ni325   1.903       .  S
O303       Ni319   1.912       .  S
O303        H326   0.966       .  S
C304        O321   1.273       .  A
C304        O313   1.276       .  A
C304        C339   1.440       .  S
O305       Ni324   1.935       .  S
O305        C311   1.271       .  A
O306       Ni324   1.900       .  S
O306        C308   1.266       .  A
Ni307       O310   1.930       .  S
Ni307       O312   1.900       .  S
C308        O318   1.272       .  A
C308        C347   1.432       .  S
O309       Ni325   1.919       .  S
O309        C315   1.273       .  A
O310        C315   1.276       .  A
C311        C365   1.430       .  S
O312        C314   1.266       .  A
O313       Ni324   1.930       .  S
C314        O320   1.272       .  A
C314        C364   1.432       .  S
C315        C337   1.440       .  S
H316        O317   0.966       .  S
O317       Ni325   1.912       .  S
O317       Ni319   1.903       .  S
O317       Ni324   1.911       .  S
O318       Ni319   1.932       .  S
Ni319       O323   1.895       .  S
Ni319       O321   1.919       .  S
O320       Ni325   1.932       .  S
C322        O323   1.264       .  A
C322        C346   1.430       .  S
C327        H328   1.112       .  S
C327        C333   1.536       .  S
C327        C332   1.532       .  S
C327        C331   1.538       .  S
C329        H330   1.112       .  S
C329        C335   1.532       .  S
C329        C334   1.538       .  S
C329        C336   1.536       .  S
C331        C334   1.373       .  D
C331        C338   1.449       .  S
C332        C335   1.362       .  D
C332        C355   1.441   1_556  S
C333        C336   1.369       .  D
C333        C354   1.443       .  S
C334        C343   1.449       .  S
C335        C373   1.441   1_556  S
C336        C375   1.443   1_556  S
C337        C338   1.209       .  T
C339        C340   1.209       .  T
C341        C342   1.209       .  T
C343        C344   1.209       .  T
C345        C346   1.203       .  T
C347        C348   1.204       .  T
C349        C350   1.204       .  T
C351        C352   1.203       .  T
C353        C354   1.204       .  T
C355        C356   1.203       .  T
C357        C358   1.203       .  T
C359        C360   1.204       .  T
C361        C362   1.209       .  T
C362       C1030   1.449       .  S
C363        C364   1.204       .  T
C365        C366   1.203       .  T
C367        C368   1.203       .  T
C369        C370   1.204       .  T
C371        C372   1.209       .  T
C373        C374   1.203       .  T
C375        C376   1.204   1_554  T
C377        C378   1.209       .  T
C378        C991   1.449       .  S
C379        C380   1.204       .  T
C381        C382   1.203       .  T
C383        C384   1.209       .  T
O385       Ni391   1.935       .  S
O385        C598   1.271       .  A
O386       Ni409   1.895   1_556  S
O386        C395   1.264       .  A
O387       Ni391   1.911       .  S
O387       Ni793   1.903       .  S
O387       Ni595   1.912   1_554  S
O387        H410   0.966       .  S
C388       O1173   1.273   1_455  A
C388        O397   1.276       .  A
C388        C569   1.440   1_455  S
O389       Ni408   1.935   1_565  S
O389        C587   1.271       .  A
O390        C392   1.266       .  A
C392        O402   1.272       .  A
C392        C568   1.432       .  S
O393       Ni409   1.919       .  S
O393       C1167   1.273   1_455  A
O394        C399   1.276       .  A
C395        O581   1.271       .  A
C395        C574   1.430       .  S
O396        C398   1.266       .  A
C398        O404   1.272       .  A
C398        C572   1.432       .  S
C399       O1161   1.273       .  A
C399        C575   1.440       .  S
H400        O401   0.966   1_655  S
O401       Ni601   1.912       .  S
O401       Ni787   1.903   1_465  S
O401       Ni408   1.911   1_565  S
O402      Ni1171   1.932   1_455  S
Ni403      O1170   1.932       .  S
Ni403       O407   1.895       .  S
Ni403       O405   1.919       .  S
Ni403       O579   1.912       .  S
Ni403       O785   1.903       .  S
O404      Ni1177   1.932       .  S
O405       C1156   1.273       .  A
C406        O577   1.271       .  A
C406        O407   1.264       .  A
C406        C566   1.430       .  S
Ni409      O1172   1.932   1_455  S
Ni409       O771   1.903   1_465  S
Ni409       O593   1.912   1_554  S
C411        H412   1.112       .  S
C411       C1185   1.532   1_455  S
C411        C416   1.536       .  S
C411       C1183   1.538   1_455  S
C413        H414   1.112       .  S
C413       C1187   1.536       .  S
C413       C1186   1.538       .  S
C413        C420   1.532       .  S
C415       C1179   1.538       .  S
C415       C1186   1.373       .  D
C415       C1338   1.449       .  S
C416        C419   1.369       .  D
C416        C561   1.443       .  S
C417       C1179   1.532       .  S
C417        C420   1.362       .  D
C417        C559   1.441       .  S
C418       C1181   1.538   1_655  S
C418       C1183   1.373       .  D
C418        C563   1.448       .  S
C419       C1181   1.536       .  S
C419        C555   1.443       .  S
C420        C558   1.441       .  S
O421       Ni427   1.935       .  S
O421        C634   1.271       .  A
O422       Ni445   1.895       .  S
O422        C431   1.264       .  A
O423       Ni427   1.911       .  S
O423      Ni1213   1.903   1_455  S
O423       Ni631   1.912       .  S
O423        H446   0.966   1_455  S
C424       O1209   1.273       .  A
C424        O433   1.276       .  A
C424        C553   1.440       .  S
O425       Ni444   1.935       .  S
O425        C623   1.271       .  A
O426       Ni444   1.900       .  S
O426        C428   1.266       .  A
Ni427       O430   1.930       .  S
Ni427       O432   1.900       .  S
C428        O438   1.272       .  A
C428        C552   1.432       .  S
O429       Ni445   1.919       .  S
O429       C1203   1.273       .  A
O430        C435   1.276       .  A
C431        O617   1.271       .  A
C431        C548   1.430       .  S
O432        C434   1.266       .  A
O433       Ni444   1.930       .  S
C434        O440   1.272       .  A
C434        C545   1.432       .  S
C435       O1197   1.273   1_455  A
C435        C564   1.440   1_455  S
H436        O437   0.966       .  S
O437       Ni637   1.912   1_554  S
O437      Ni1207   1.903       .  S
O437       Ni444   1.911       .  S
O438      Ni1207   1.932       .  S
Ni439      O1206   1.932   1_455  S
Ni439       O443   1.895   1_554  S
Ni439       O441   1.919       .  S
Ni439       O615   1.912   1_554  S
Ni439      O1205   1.903   1_455  S
O440      Ni1213   1.932   1_455  S
O441       C1192   1.273   1_455  A
C442        O613   1.271       .  A
C442        O443   1.264       .  A
C442        C549   1.430       .  S
Ni445      O1208   1.932       .  S
Ni445      O1191   1.903       .  S
Ni445       O629   1.912       .  S
C447        H448   1.112       .  S
C447       C1221   1.536       .  S
C447        C452   1.532   1_655  S
C447       C1219   1.538   1_655  S
C449        H450   1.112       .  S
C449       C1223   1.532       .  S
C449       C1222   1.538       .  S
C449        C456   1.536       .  S
C451       C1215   1.538       .  S
C451       C1222   1.373       .  D
C451        C576   1.448       .  S
C452        C455   1.362       .  D
C452        C543   1.441       .  S
C453       C1215   1.536       .  S
C453        C456   1.369       .  D
C453        C541   1.443       .  S
C454       C1217   1.538   1_455  S
C454       C1219   1.373       .  D
C454       C1322   1.449       .  S
C455       C1217   1.532   1_455  S
C455        C537   1.441       .  S
C456        C540   1.443       .  S
O457       Ni463   1.935       .  S
O457        C478   1.271       .  A
O458       Ni481   1.895       .  S
O458        C467   1.264       .  A
O459       Ni463   1.911       .  S
O459       Ni475   1.912       .  S
O459        H482   0.966       .  S
C460        O477   1.273       .  A
C460        O469   1.276       .  A
C460        C536   1.440       .  S
O461       Ni480   1.935   1_565  S
O461        C467   1.271       .  A
O462        C464   1.266       .  A
C464        O474   1.272       .  A
C464        C562   1.432       .  S
O465       Ni481   1.919       .  S
O465        C471   1.273       .  A
O466        C471   1.276       .  A
C467        C544   1.430       .  S
O468        C470   1.266       .  A
C470        O476   1.272       .  A
C470        C542   1.432       .  S
C471        C533   1.440       .  S
H472        O473   0.966       .  S
O473       Ni481   1.912       .  S
O473       Ni480   1.911   1_565  S
O474       Ni475   1.932       .  S
Ni475       O479   1.895       .  S
Ni475       O477   1.919       .  S
O476       Ni481   1.932       .  S
C478        O479   1.264       .  A
C478        C560   1.430       .  S
C483        H484   1.112       .  S
C483        C489   1.532       .  S
C483        C488   1.536       .  S
C483        C487   1.538       .  S
C485        H486   1.112       .  S
C485        C491   1.536       .  S
C485        C490   1.538       .  S
C485        C492   1.532       .  S
C487        C490   1.373       .  D
C487        C532   1.448       .  S
C488        C491   1.369       .  D
C488        C551   1.443   1_554  S
C489        C492   1.362       .  D
C489        C550   1.441   1_554  S
C490        C534   1.449       .  S
C491        C571   1.443   1_554  S
C492        C573   1.441   1_554  S
O493       Ni499   1.935       .  S
O493        C514   1.271       .  A
O494       Ni517   1.895       .  S
O494        C503   1.264       .  A
O495       Ni499   1.911       .  S
O495       Ni517   1.903       .  S
O495       Ni511   1.912       .  S
O495        H518   0.966       .  S
C496        O513   1.273       .  A
C496        O505   1.276       .  A
C496        C531   1.440       .  S
O497       Ni516   1.935       .  S
O497        C503   1.271       .  A
O498       Ni516   1.900       .  S
O498        C500   1.266       .  A
Ni499       O502   1.930       .  S
Ni499       O504   1.900       .  S
C500        O510   1.272       .  A
C500        C539   1.432       .  S
O501       Ni517   1.919       .  S
O501        C507   1.273       .  A
O502        C507   1.276       .  A
C503        C557   1.430       .  S
O504        C506   1.266       .  A
O505       Ni516   1.930       .  S
C506        O512   1.272       .  A
C506        C556   1.432       .  S
C507        C529   1.440       .  S
H508        O509   0.966       .  S
O509       Ni517   1.912       .  S
O509       Ni511   1.903       .  S
O509       Ni516   1.911       .  S
O510       Ni511   1.932       .  S
Ni511       O515   1.895       .  S
Ni511       O513   1.919       .  S
O512       Ni517   1.932       .  S
C514        O515   1.264       .  A
C514        C538   1.430       .  S
C519        H520   1.112       .  S
C519        C525   1.536       .  S
C519        C524   1.532       .  S
C519        C523   1.538       .  S
C521        H522   1.112       .  S
C521        C527   1.532       .  S
C521        C526   1.538       .  S
C521        C528   1.536       .  S
C523        C526   1.373       .  D
C523        C530   1.449       .  S
C524        C527   1.362       .  D
C524        C547   1.441       .  S
C525        C528   1.369       .  D
C525        C546   1.443       .  S
C526        C535   1.449       .  S
C527        C565   1.441       .  S
C528        C567   1.443       .  S
C529        C530   1.209       .  T
C531        C532   1.209       .  T
C533        C534   1.209       .  T
C535        C536   1.209       .  T
C537        C538   1.203       .  T
C539        C540   1.204       .  T
C541        C542   1.204       .  T
C543        C544   1.203       .  T
C545        C546   1.204       .  T
C547        C548   1.203       .  T
C549        C550   1.203       .  T
C551        C552   1.204   1_556  T
C553        C554   1.209       .  T
C554       C1222   1.449       .  S
C555        C556   1.204       .  T
C557        C558   1.203       .  T
C559        C560   1.203       .  T
C561        C562   1.204       .  T
C563        C564   1.209       .  T
C565        C566   1.203       .  T
C567        C568   1.204       .  T
C569        C570   1.209       .  T
C570       C1183   1.449       .  S
C571        C572   1.204   1_556  T
C573        C574   1.203       .  T
C575        C576   1.209       .  T
O577       Ni583   1.935       .  S
O578       Ni601   1.895       .  S
O578        C587   1.264       .  A
O579       Ni583   1.911       .  S
O579       Ni985   1.903       .  S
O579        H602   0.966       .  S
C580       O1365   1.273   1_455  A
C580        O589   1.276       .  A
C580        C761   1.440   1_455  S
O581       Ni600   1.935   1_565  S
O582        C584   1.266       .  A
C584        O594   1.272       .  A
C584        C760   1.432       .  S
O585       Ni601   1.919       .  S
O585       C1359   1.273   1_455  A
O586        C591   1.276       .  A
C587        C766   1.430       .  S
O588        C590   1.266       .  A
C590        O596   1.272       .  A
C590        C764   1.432       .  S
C591       O1353   1.273       .  A
C591        C767   1.440       .  S
H592        O593   0.966   1_655  S
O593       Ni979   1.903   1_465  S
O593       Ni600   1.911   1_565  S
O594      Ni1363   1.932   1_455  S
Ni595      O1362   1.932       .  S
Ni595       O599   1.895   1_556  S
Ni595       O597   1.919       .  S
Ni595       O977   1.903       .  S
O596      Ni1369   1.932       .  S
O597       C1348   1.273       .  A
C598        O599   1.264       .  A
C598        C758   1.430       .  S
Ni601      O1364   1.932   1_455  S
Ni601       O963   1.903   1_465  S
C603        H604   1.112       .  S
C603       C1377   1.532   1_455  S
C603        C608   1.536       .  S
C603       C1375   1.538   1_455  S
C605        H606   1.112       .  S
C605       C1379   1.536       .  S
C605       C1378   1.538       .  S
C605        C612   1.532       .  S
C607       C1371   1.538       .  S
C607       C1378   1.373       .  D
C607       C1530   1.449       .  S
C608        C611   1.369       .  D
C608        C753   1.443       .  S
C609       C1371   1.532       .  S
C609        C612   1.362       .  D
C609        C751   1.441       .  S
C610       C1373   1.538   1_655  S
C610       C1375   1.373       .  D
C610        C755   1.448       .  S
C611       C1373   1.536       .  S
C611        C747   1.443       .  S
C612        C750   1.441       .  S
O613       Ni619   1.935       .  S
O614       Ni637   1.895   1_554  S
O614        C623   1.264       .  A
O615       Ni619   1.911       .  S
O615      Ni1405   1.903   1_455  S
O615        H638   0.966   1_455  S
C616       O1401   1.273       .  A
C616        O625   1.276       .  A
C616        C745   1.440       .  S
O617       Ni636   1.935       .  S
O618       Ni636   1.900       .  S
O618        C620   1.266       .  A
Ni619       O622   1.930       .  S
Ni619       O624   1.900       .  S
C620        O630   1.272       .  A
C620        C744   1.432       .  S
O621       Ni637   1.919       .  S
O621       C1395   1.273       .  A
O622        C627   1.276       .  A
C623        C740   1.430       .  S
O624        C626   1.266       .  A
O625       Ni636   1.930       .  S
C626        O632   1.272       .  A
C626        C737   1.432       .  S
C627       O1389   1.273   1_455  A
C627        C756   1.440   1_455  S
H628        O629   0.966       .  S
O629      Ni1399   1.903       .  S
O629       Ni636   1.911       .  S
O630      Ni1399   1.932       .  S
Ni631      O1398   1.932   1_455  S
Ni631       O635   1.895       .  S
Ni631       O633   1.919       .  S
Ni631      O1397   1.903   1_455  S
O632      Ni1405   1.932   1_455  S
O633       C1384   1.273   1_455  A
C634        O635   1.264       .  A
C634        C741   1.430       .  S
Ni637      O1400   1.932       .  S
Ni637      O1383   1.903       .  S
C639        H640   1.112       .  S
C639       C1413   1.536       .  S
C639        C644   1.532   1_655  S
C639       C1411   1.538   1_655  S
C641        H642   1.112       .  S
C641       C1415   1.532       .  S
C641       C1414   1.538       .  S
C641        C648   1.536       .  S
C643       C1407   1.538       .  S
C643       C1414   1.373       .  D
C643        C768   1.448       .  S
C644        C647   1.362       .  D
C644        C735   1.441       .  S
C645       C1407   1.536       .  S
C645        C648   1.369       .  D
C645        C733   1.443       .  S
C646       C1409   1.538   1_455  S
C646       C1411   1.373       .  D
C646       C1514   1.449       .  S
C647       C1409   1.532   1_455  S
C647        C729   1.441       .  S
C648        C732   1.443       .  S
O649       Ni655   1.935       .  S
O649        C670   1.271       .  A
O650       Ni673   1.895       .  S
O650        C659   1.264       .  A
O651       Ni655   1.911       .  S
O651       Ni667   1.912       .  S
O651        H674   0.966       .  S
C652        O669   1.273       .  A
C652        O661   1.276       .  A
C652        C728   1.440       .  S
O653       Ni672   1.935   1_565  S
O653        C659   1.271       .  A
O654        C656   1.266       .  A
C656        O666   1.272       .  A
C656        C754   1.432       .  S
O657       Ni673   1.919       .  S
O657        C663   1.273       .  A
O658        C663   1.276       .  A
C659        C736   1.430       .  S
O660        C662   1.266       .  A
C662        O668   1.272       .  A
C662        C734   1.432       .  S
C663        C725   1.440       .  S
H664        O665   0.966       .  S
O665       Ni673   1.912       .  S
O665       Ni672   1.911   1_565  S
O666       Ni667   1.932       .  S
Ni667       O671   1.895       .  S
Ni667       O669   1.919       .  S
O668       Ni673   1.932       .  S
C670        O671   1.264       .  A
C670        C752   1.430       .  S
C675        H676   1.112       .  S
C675        C681   1.532       .  S
C675        C680   1.536       .  S
C675        C679   1.538       .  S
C677        H678   1.112       .  S
C677        C683   1.536       .  S
C677        C682   1.538       .  S
C677        C684   1.532       .  S
C679        C682   1.373       .  D
C679        C724   1.448       .  S
C680        C683   1.369       .  D
C680        C743   1.443       .  S
C681        C684   1.362       .  D
C681        C742   1.441       .  S
C682        C726   1.449       .  S
C683        C763   1.443       .  S
C684        C765   1.441       .  S
O685       Ni691   1.935       .  S
O685        C706   1.271       .  A
O686       Ni709   1.895       .  S
O686        C695   1.264       .  A
O687       Ni691   1.911       .  S
O687       Ni709   1.903       .  S
O687       Ni703   1.912       .  S
O687        H710   0.966       .  S
C688        O705   1.273       .  A
C688        O697   1.276       .  A
C688        C723   1.440       .  S
O689       Ni708   1.935       .  S
O689        C695   1.271       .  A
O690       Ni708   1.900       .  S
O690        C692   1.266       .  A
Ni691       O694   1.930       .  S
Ni691       O696   1.900       .  S
C692        O702   1.272       .  A
C692        C731   1.432       .  S
O693       Ni709   1.919       .  S
O693        C699   1.273       .  A
O694        C699   1.276       .  A
C695        C749   1.430       .  S
O696        C698   1.266       .  A
O697       Ni708   1.930       .  S
C698        O704   1.272       .  A
C698        C748   1.432       .  S
C699        C721   1.440       .  S
H700        O701   0.966       .  S
O701       Ni709   1.912       .  S
O701       Ni703   1.903       .  S
O701       Ni708   1.911       .  S
O702       Ni703   1.932       .  S
Ni703       O707   1.895       .  S
Ni703       O705   1.919       .  S
O704       Ni709   1.932       .  S
C706        O707   1.264       .  A
C706        C730   1.430       .  S
C711        H712   1.112       .  S
C711        C717   1.536       .  S
C711        C716   1.532       .  S
C711        C715   1.538       .  S
C713        H714   1.112       .  S
C713        C719   1.532       .  S
C713        C718   1.538       .  S
C713        C720   1.536       .  S
C715        C718   1.373       .  D
C715        C722   1.449       .  S
C716        C719   1.362       .  D
C716        C739   1.441   1_556  S
C717        C720   1.369       .  D
C717        C738   1.443       .  S
C718        C727   1.449       .  S
C719        C757   1.441   1_556  S
C720        C759   1.443   1_556  S
C721        C722   1.209       .  T
C723        C724   1.209       .  T
C725        C726   1.209       .  T
C727        C728   1.209       .  T
C729        C730   1.203       .  T
C731        C732   1.204       .  T
C733        C734   1.204       .  T
C735        C736   1.203       .  T
C737        C738   1.204       .  T
C739        C740   1.203       .  T
C741        C742   1.203       .  T
C743        C744   1.204       .  T
C745        C746   1.209       .  T
C746       C1414   1.449       .  S
C747        C748   1.204       .  T
C749        C750   1.203       .  T
C751        C752   1.203       .  T
C753        C754   1.204       .  T
C755        C756   1.209       .  T
C757        C758   1.203       .  T
C759        C760   1.204   1_554  T
C761        C762   1.209       .  T
C762       C1375   1.449       .  S
C763        C764   1.204       .  T
C765        C766   1.203       .  T
C767        C768   1.209       .  T
O769       Ni775   1.935   1_545  S
O769        C982   1.271       .  A
O770       Ni793   1.895   1_556  S
O770        C779   1.264       .  A
O771       Ni775   1.911   1_545  S
O771       Ni979   1.912   1_554  S
O771        H794   0.966   1_655  S
C772        O781   1.276       .  A
C772        C953   1.440       .  S
O773       Ni792   1.935       .  S
O773        C971   1.271       .  A
O774      Ni1176   1.900       .  S
O774        C776   1.266       .  A
Ni775      O1162   1.930       .  S
Ni775      O1164   1.900       .  S
C776        O786   1.272       .  A
C776        C952   1.432       .  S
O777       Ni793   1.919       .  S
O778      Ni1159   1.930       .  S
O778        C783   1.276       .  A
C779        O965   1.271       .  A
C779        C958   1.430       .  S
O780      Ni1159   1.900       .  S
O780        C782   1.266       .  A
O781      Ni1176   1.930       .  S
C782        O788   1.272       .  A
C782        C956   1.432       .  S
C783        C959   1.440   1_655  S
H784        O785   0.966       .  S
O785       Ni985   1.912       .  S
O785       Ni792   1.911       .  S
Ni787       O791   1.895       .  S
Ni787       O789   1.919       .  S
Ni787       O963   1.912       .  S
C790        O961   1.271       .  A
C790        O791   1.264       .  A
C790        C950   1.430       .  S
Ni792      O1158   1.900       .  S
Ni792      O1165   1.930       .  S
Ni793       O977   1.912   1_554  S
C795        H796   1.112       .  S
C795        C800   1.536       .  S
C797        H798   1.112       .  S
C797        C804   1.532   1_455  S
C800        C803   1.369       .  D
C800        C945   1.443       .  S
C801        C804   1.362       .  D
C801        C943   1.441       .  S
C802        C947   1.448       .  S
C803        C939   1.443       .  S
C804        C942   1.441       .  S
O805       Ni811   1.935       .  S
O805       C1018   1.271       .  A
O806       Ni829   1.895       .  S
O806        C815   1.264       .  A
O807       Ni811   1.911       .  S
O807      Ni1015   1.912       .  S
O807        H830   0.966       .  S
C808        O817   1.276       .  A
C808        C937   1.440   1_655  S
O809       Ni828   1.935       .  S
O809       C1007   1.271       .  A
O810       Ni828   1.900       .  S
O810        C812   1.266       .  A
Ni811       O814   1.930       .  S
Ni811       O816   1.900       .  S
C812        O822   1.272       .  A
C812        C936   1.432       .  S
O813       Ni829   1.919       .  S
O814        C819   1.276       .  A
C815       O1001   1.271       .  A
C815        C932   1.430       .  S
O816        C818   1.266       .  A
O817       Ni828   1.930       .  S
C818        O824   1.272       .  A
C818        C929   1.432       .  S
C819        C948   1.440       .  S
H820        O821   0.966   1_455  S
O821      Ni1021   1.912   1_554  S
O821       Ni828   1.911       .  S
Ni823       O827   1.895   1_554  S
Ni823       O825   1.919       .  S
Ni823       O999   1.912   1_554  S
C826        O997   1.271       .  A
C826        O827   1.264       .  A
C826        C933   1.430       .  S
Ni829      O1013   1.912       .  S
C831        H832   1.112       .  S
C831        C836   1.532       .  S
C833        H834   1.112       .  S
C833        C840   1.536       .  S
C835        C960   1.448       .  S
C836        C839   1.362       .  D
C836        C927   1.441       .  S
C837        C840   1.369       .  D
C837        C925   1.443       .  S
C839        C921   1.441       .  S
C840        C924   1.443       .  S
O841       Ni847   1.935   1_545  S
O841        C862   1.271       .  A
O842       Ni865   1.895       .  S
O842        C851   1.264       .  A
O843       Ni847   1.911   1_545  S
O843      Ni1249   1.903   1_545  S
O843       Ni859   1.912       .  S
O843        H866   0.966       .  S
C844        O861   1.273       .  A
C844        O853   1.276       .  A
C844        C920   1.440       .  S
O845       Ni864   1.935       .  S
O845        C851   1.271       .  A
O846      Ni1248   1.900       .  S
O846        C848   1.266       .  A
Ni847      O1234   1.930       .  S
Ni847      O1236   1.900       .  S
C848        O858   1.272       .  A
C848        C946   1.432       .  S
O849       Ni865   1.919       .  S
O849        C855   1.273       .  A
O850      Ni1231   1.930       .  S
O850        C855   1.276       .  A
C851        C928   1.430       .  S
O852      Ni1231   1.900       .  S
O852        C854   1.266       .  A
O853      Ni1248   1.930       .  S
C854        O860   1.272       .  A
C854        C926   1.432       .  S
C855        C917   1.440       .  S
H856        O857   0.966       .  S
O857       Ni865   1.912       .  S
O857      Ni1243   1.903       .  S
O857       Ni864   1.911       .  S
O858       Ni859   1.932       .  S
Ni859       O863   1.895       .  S
Ni859       O861   1.919       .  S
Ni859      O1241   1.903   1_545  S
O860       Ni865   1.932       .  S
C862        O863   1.264       .  A
C862        C944   1.430       .  S
Ni864      O1230   1.900       .  S
Ni864      O1237   1.930       .  S
Ni865      O1227   1.903       .  S
C867        H868   1.112       .  S
C867        C873   1.532       .  S
C867        C872   1.536       .  S
C867        C871   1.538       .  S
C869        H870   1.112       .  S
C869        C875   1.536       .  S
C869        C874   1.538       .  S
C869        C876   1.532       .  S
C871        C874   1.373       .  D
C871        C916   1.448       .  S
C872        C875   1.369       .  D
C872        C935   1.443   1_554  S
C873        C876   1.362       .  D
C873        C934   1.441   1_554  S
C874        C918   1.449       .  S
C875        C955   1.443   1_554  S
C876        C957   1.441   1_554  S
O877       Ni883   1.935       .  S
O877        C898   1.271       .  A
O878       Ni901   1.895       .  S
O878        C887   1.264       .  A
O879       Ni883   1.911       .  S
O879       Ni901   1.903       .  S
O879       Ni895   1.912       .  S
O879        H902   0.966       .  S
C880        O897   1.273       .  A
C880        O889   1.276       .  A
C880        C915   1.440       .  S
O881       Ni900   1.935       .  S
O881        C887   1.271       .  A
O882       Ni900   1.900       .  S
O882        C884   1.266       .  A
Ni883       O886   1.930       .  S
Ni883       O888   1.900       .  S
C884        O894   1.272       .  A
C884        C923   1.432       .  S
O885       Ni901   1.919       .  S
O885        C891   1.273       .  A
O886        C891   1.276       .  A
C887        C941   1.430       .  S
O888        C890   1.266       .  A
O889       Ni900   1.930       .  S
C890        O896   1.272       .  A
C890        C940   1.432       .  S
C891        C913   1.440       .  S
H892        O893   0.966       .  S
O893       Ni901   1.912       .  S
O893       Ni895   1.903       .  S
O893       Ni900   1.911       .  S
O894       Ni895   1.932       .  S
Ni895       O899   1.895       .  S
Ni895       O897   1.919       .  S
O896       Ni901   1.932       .  S
C898        O899   1.264       .  A
C898        C922   1.430       .  S
C903        H904   1.112       .  S
C903        C909   1.536       .  S
C903        C908   1.532       .  S
C903        C907   1.538       .  S
C905        H906   1.112       .  S
C905        C911   1.532       .  S
C905        C910   1.538       .  S
C905        C912   1.536       .  S
C907        C910   1.373       .  D
C907        C914   1.449       .  S
C908        C911   1.362       .  D
C908        C931   1.441       .  S
C909        C912   1.369       .  D
C909        C930   1.443       .  S
C910        C919   1.449       .  S
C911        C949   1.441       .  S
C912        C951   1.443       .  S
C913        C914   1.209       .  T
C915        C916   1.209       .  T
C917        C918   1.209       .  T
C919        C920   1.209       .  T
C921        C922   1.203       .  T
C923        C924   1.204       .  T
C925        C926   1.204       .  T
C927        C928   1.203       .  T
C929        C930   1.204       .  T
C931        C932   1.203       .  T
C933        C934   1.203       .  T
C935        C936   1.204   1_556  T
C937        C938   1.209       .  T
C939        C940   1.204       .  T
C941        C942   1.203       .  T
C943        C944   1.203       .  T
C945        C946   1.204       .  T
C947        C948   1.209       .  T
C949        C950   1.203       .  T
C951        C952   1.204       .  T
C953        C954   1.209       .  T
C955        C956   1.204   1_556  T
C957        C958   1.203       .  T
C959        C960   1.209       .  T
O961       Ni967   1.935   1_545  S
O962       Ni985   1.895       .  S
O962        C971   1.264       .  A
O963       Ni967   1.911   1_545  S
O963        H986   0.966   1_655  S
C964        O973   1.276       .  A
C964       C1145   1.440       .  S
O965       Ni984   1.935       .  S
O966      Ni1368   1.900       .  S
O966        C968   1.266       .  A
Ni967      O1354   1.930       .  S
Ni967      O1356   1.900       .  S
C968        O978   1.272       .  A
C968       C1144   1.432       .  S
O969       Ni985   1.919       .  S
O970      Ni1351   1.930       .  S
O970        C975   1.276       .  A
C971       C1150   1.430       .  S
O972      Ni1351   1.900       .  S
O972        C974   1.266       .  A
O973      Ni1368   1.930       .  S
C974        O980   1.272       .  A
C974       C1148   1.432       .  S
C975       C1151   1.440   1_655  S
H976        O977   0.966       .  S
O977       Ni984   1.911       .  S
Ni979       O983   1.895   1_556  S
Ni979       O981   1.919       .  S
C982        O983   1.264       .  A
C982       C1142   1.430       .  S
Ni984      O1350   1.900       .  S
Ni984      O1357   1.930       .  S
C987        H988   1.112       .  S
C987        C992   1.536       .  S
C989        H990   1.112       .  S
C989        C996   1.532   1_455  S
C992        C995   1.369       .  D
C992       C1137   1.443       .  S
C993        C996   1.362       .  D
C993       C1135   1.441       .  S
C994       C1139   1.448       .  S
C995       C1131   1.443       .  S
C996       C1134   1.441       .  S
O997      Ni1003   1.935       .  S
O998      Ni1021   1.895   1_554  S
O998       C1007   1.264       .  A
O999      Ni1003   1.911       .  S
O999       H1022   0.966       .  S
C1000      O1009   1.276       .  A
C1000      C1129   1.440   1_655  S
O1001     Ni1020   1.935       .  S
O1002     Ni1020   1.900       .  S
O1002      C1004   1.266       .  A
Ni1003     O1006   1.930       .  S
Ni1003     O1008   1.900       .  S
C1004      O1014   1.272       .  A
C1004      C1128   1.432       .  S
O1005     Ni1021   1.919       .  S
O1006      C1011   1.276       .  A
C1007      C1124   1.430       .  S
O1008      C1010   1.266       .  A
O1009     Ni1020   1.930       .  S
C1010      O1016   1.272       .  A
C1010      C1121   1.432       .  S
C1011      C1140   1.440       .  S
H1012      O1013   0.966   1_455  S
O1013     Ni1020   1.911       .  S
Ni1015     O1019   1.895       .  S
Ni1015     O1017   1.919       .  S
C1018      O1019   1.264       .  A
C1018      C1125   1.430       .  S
C1023      H1024   1.112       .  S
C1023      C1028   1.532       .  S
C1025      H1026   1.112       .  S
C1025      C1032   1.536       .  S
C1027      C1152   1.448       .  S
C1028      C1031   1.362       .  D
C1028      C1119   1.441       .  S
C1029      C1032   1.369       .  D
C1029      C1117   1.443       .  S
C1031      C1113   1.441       .  S
C1032      C1116   1.443       .  S
O1033     Ni1039   1.935   1_545  S
O1033      C1054   1.271       .  A
O1034     Ni1057   1.895       .  S
O1034      C1043   1.264       .  A
O1035     Ni1039   1.911   1_545  S
O1035     Ni1441   1.903   1_545  S
O1035     Ni1051   1.912       .  S
O1035      H1058   0.966       .  S
C1036      O1053   1.273       .  A
C1036      O1045   1.276       .  A
C1036      C1112   1.440       .  S
O1037     Ni1056   1.935       .  S
O1037      C1043   1.271       .  A
O1038     Ni1440   1.900       .  S
O1038      C1040   1.266       .  A
Ni1039     O1426   1.930       .  S
Ni1039     O1428   1.900       .  S
C1040      O1050   1.272       .  A
C1040      C1138   1.432       .  S
O1041     Ni1057   1.919       .  S
O1041      C1047   1.273       .  A
O1042     Ni1423   1.930       .  S
O1042      C1047   1.276       .  A
C1043      C1120   1.430       .  S
O1044     Ni1423   1.900       .  S
O1044      C1046   1.266       .  A
O1045     Ni1440   1.930       .  S
C1046      O1052   1.272       .  A
C1046      C1118   1.432       .  S
C1047      C1109   1.440       .  S
H1048      O1049   0.966       .  S
O1049     Ni1057   1.912       .  S
O1049     Ni1435   1.903       .  S
O1049     Ni1056   1.911       .  S
O1050     Ni1051   1.932       .  S
Ni1051     O1055   1.895       .  S
Ni1051     O1053   1.919       .  S
Ni1051     O1433   1.903   1_545  S
O1052     Ni1057   1.932       .  S
C1054      O1055   1.264       .  A
C1054      C1136   1.430       .  S
Ni1056     O1422   1.900       .  S
Ni1056     O1429   1.930       .  S
Ni1057     O1419   1.903       .  S
C1059      H1060   1.112       .  S
C1059      C1065   1.532       .  S
C1059      C1064   1.536       .  S
C1059      C1063   1.538       .  S
C1061      H1062   1.112       .  S
C1061      C1067   1.536       .  S
C1061      C1066   1.538       .  S
C1061      C1068   1.532       .  S
C1063      C1066   1.373       .  D
C1063      C1108   1.448       .  S
C1064      C1067   1.369       .  D
C1064      C1127   1.443       .  S
C1065      C1068   1.362       .  D
C1065      C1126   1.441       .  S
C1066      C1110   1.449       .  S
C1067      C1147   1.443       .  S
C1068      C1149   1.441       .  S
O1069     Ni1075   1.935       .  S
O1069      C1090   1.271       .  A
O1070     Ni1093   1.895       .  S
O1070      C1079   1.264       .  A
O1071     Ni1075   1.911       .  S
O1071     Ni1093   1.903       .  S
O1071     Ni1087   1.912       .  S
O1071      H1094   0.966       .  S
C1072      O1089   1.273       .  A
C1072      O1081   1.276       .  A
C1072      C1107   1.440       .  S
O1073     Ni1092   1.935       .  S
O1073      C1079   1.271       .  A
O1074     Ni1092   1.900       .  S
O1074      C1076   1.266       .  A
Ni1075     O1078   1.930       .  S
Ni1075     O1080   1.900       .  S
C1076      O1086   1.272       .  A
C1076      C1115   1.432       .  S
O1077     Ni1093   1.919       .  S
O1077      C1083   1.273       .  A
O1078      C1083   1.276       .  A
C1079      C1133   1.430       .  S
O1080      C1082   1.266       .  A
O1081     Ni1092   1.930       .  S
C1082      O1088   1.272       .  A
C1082      C1132   1.432       .  S
C1083      C1105   1.440       .  S
H1084      O1085   0.966       .  S
O1085     Ni1093   1.912       .  S
O1085     Ni1087   1.903       .  S
O1085     Ni1092   1.911       .  S
O1086     Ni1087   1.932       .  S
Ni1087     O1091   1.895       .  S
Ni1087     O1089   1.919       .  S
O1088     Ni1093   1.932       .  S
C1090      O1091   1.264       .  A
C1090      C1114   1.430       .  S
C1095      H1096   1.112       .  S
C1095      C1101   1.536       .  S
C1095      C1100   1.532       .  S
C1095      C1099   1.538       .  S
C1097      H1098   1.112       .  S
C1097      C1103   1.532       .  S
C1097      C1102   1.538       .  S
C1097      C1104   1.536       .  S
C1099      C1102   1.373       .  D
C1099      C1106   1.449       .  S
C1100      C1103   1.362       .  D
C1100      C1123   1.441   1_556  S
C1101      C1104   1.369       .  D
C1101      C1122   1.443       .  S
C1102      C1111   1.449       .  S
C1103      C1141   1.441   1_556  S
C1104      C1143   1.443   1_556  S
C1105      C1106   1.209       .  T
C1107      C1108   1.209       .  T
C1109      C1110   1.209       .  T
C1111      C1112   1.209       .  T
C1113      C1114   1.203       .  T
C1115      C1116   1.204       .  T
C1117      C1118   1.204       .  T
C1119      C1120   1.203       .  T
C1121      C1122   1.204       .  T
C1123      C1124   1.203       .  T
C1125      C1126   1.203       .  T
C1127      C1128   1.204       .  T
C1129      C1130   1.209       .  T
C1131      C1132   1.204       .  T
C1133      C1134   1.203       .  T
C1135      C1136   1.203       .  T
C1137      C1138   1.204       .  T
C1139      C1140   1.209       .  T
C1141      C1142   1.203       .  T
C1143      C1144   1.204   1_554  T
C1145      C1146   1.209       .  T
C1147      C1148   1.204       .  T
C1149      C1150   1.203       .  T
C1151      C1152   1.209       .  T
O1153     Ni1159   1.935       .  S
O1153      C1366   1.271       .  A
O1154     Ni1177   1.895   1_556  S
O1154      C1163   1.264       .  A
O1155     Ni1159   1.911       .  S
O1155     Ni1363   1.912   1_554  S
O1155      H1178   0.966   1_655  S
C1156      O1165   1.276       .  A
C1156      C1337   1.440       .  S
O1157     Ni1176   1.935   1_565  S
O1157      C1355   1.271       .  A
O1158      C1160   1.266       .  A
C1160      O1170   1.272       .  A
C1160      C1336   1.432       .  S
O1161     Ni1177   1.919       .  S
O1162      C1167   1.276       .  A
C1163      O1349   1.271       .  A
C1163      C1342   1.430       .  S
O1164      C1166   1.266       .  A
C1166      O1172   1.272       .  A
C1166      C1340   1.432       .  S
C1167      C1343   1.440   1_655  S
H1168      O1169   0.966       .  S
O1169     Ni1369   1.912       .  S
O1169     Ni1176   1.911   1_565  S
Ni1171     O1175   1.895       .  S
Ni1171     O1173   1.919       .  S
Ni1171     O1347   1.912       .  S
C1174      O1345   1.271       .  A
C1174      O1175   1.264       .  A
C1174      C1334   1.430       .  S
Ni1177     O1361   1.912   1_554  S
C1179      H1180   1.112       .  S
C1179      C1184   1.536       .  S
C1181      H1182   1.112       .  S
C1181      C1188   1.532   1_455  S
C1184      C1187   1.369       .  D
C1184      C1329   1.443       .  S
C1185      C1188   1.362       .  D
C1185      C1327   1.441       .  S
C1186      C1331   1.448       .  S
C1187      C1323   1.443       .  S
C1188      C1326   1.441       .  S
O1189     Ni1195   1.935       .  S
O1189      C1402   1.271       .  A
O1190     Ni1213   1.895       .  S
O1190      C1199   1.264       .  A
O1191     Ni1195   1.911       .  S
O1191     Ni1399   1.912       .  S
O1191      H1214   0.966       .  S
C1192      O1201   1.276       .  A
C1192      C1321   1.440   1_655  S
O1193     Ni1212   1.935       .  S
O1193      C1391   1.271       .  A
O1194     Ni1212   1.900       .  S
O1194      C1196   1.266       .  A
Ni1195     O1198   1.930       .  S
Ni1195     O1200   1.900       .  S
C1196      O1206   1.272       .  A
C1196      C1320   1.432       .  S
O1197     Ni1213   1.919       .  S
O1198      C1203   1.276       .  A
C1199      O1385   1.271       .  A
C1199      C1316   1.430       .  S
O1200      C1202   1.266       .  A
O1201     Ni1212   1.930       .  S
C1202      O1208   1.272       .  A
C1202      C1313   1.432       .  S
C1203      C1332   1.440       .  S
H1204      O1205   0.966   1_455  S
O1205     Ni1405   1.912   1_554  S
O1205     Ni1212   1.911       .  S
Ni1207     O1211   1.895   1_554  S
Ni1207     O1209   1.919       .  S
Ni1207     O1383   1.912   1_554  S
C1210      O1381   1.271       .  A
C1210      O1211   1.264       .  A
C1210      C1317   1.430       .  S
Ni1213     O1397   1.912       .  S
C1215      H1216   1.112       .  S
C1215      C1220   1.532       .  S
C1217      H1218   1.112       .  S
C1217      C1224   1.536       .  S
C1219      C1344   1.448       .  S
C1220      C1223   1.362       .  D
C1220      C1311   1.441       .  S
C1221      C1224   1.369       .  D
C1221      C1309   1.443       .  S
C1223      C1305   1.441       .  S
C1224      C1308   1.443       .  S
O1225     Ni1231   1.935       .  S
O1225      C1246   1.271       .  A
O1226     Ni1249   1.895       .  S
O1226      C1235   1.264       .  A
O1227     Ni1231   1.911       .  S
O1227     Ni1243   1.912       .  S
O1227      H1250   0.966       .  S
C1228      O1245   1.273       .  A
C1228      O1237   1.276       .  A
C1228      C1304   1.440       .  S
O1229     Ni1248   1.935   1_565  S
O1229      C1235   1.271       .  A
O1230      C1232   1.266       .  A
C1232      O1242   1.272       .  A
C1232      C1330   1.432       .  S
O1233     Ni1249   1.919       .  S
O1233      C1239   1.273       .  A
O1234      C1239   1.276       .  A
C1235      C1312   1.430       .  S
O1236      C1238   1.266       .  A
C1238      O1244   1.272       .  A
C1238      C1310   1.432       .  S
C1239      C1301   1.440       .  S
H1240      O1241   0.966       .  S
O1241     Ni1249   1.912       .  S
O1241     Ni1248   1.911   1_565  S
O1242     Ni1243   1.932       .  S
Ni1243     O1247   1.895       .  S
Ni1243     O1245   1.919       .  S
O1244     Ni1249   1.932       .  S
C1246      O1247   1.264       .  A
C1246      C1328   1.430       .  S
C1251      H1252   1.112       .  S
C1251      C1257   1.532       .  S
C1251      C1256   1.536       .  S
C1251      C1255   1.538       .  S
C1253      H1254   1.112       .  S
C1253      C1259   1.536       .  S
C1253      C1258   1.538       .  S
C1253      C1260   1.532       .  S
C1255      C1258   1.373       .  D
C1255      C1300   1.448       .  S
C1256      C1259   1.369       .  D
C1256      C1319   1.443   1_554  S
C1257      C1260   1.362       .  D
C1257      C1318   1.441   1_554  S
C1258      C1302   1.449       .  S
C1259      C1339   1.443   1_554  S
C1260      C1341   1.441   1_554  S
O1261     Ni1267   1.935       .  S
O1261      C1282   1.271       .  A
O1262     Ni1285   1.895       .  S
O1262      C1271   1.264       .  A
O1263     Ni1267   1.911       .  S
O1263     Ni1285   1.903       .  S
O1263     Ni1279   1.912       .  S
O1263      H1286   0.966       .  S
C1264      O1281   1.273       .  A
C1264      O1273   1.276       .  A
C1264      C1299   1.440       .  S
O1265     Ni1284   1.935       .  S
O1265      C1271   1.271       .  A
O1266     Ni1284   1.900       .  S
O1266      C1268   1.266       .  A
Ni1267     O1270   1.930       .  S
Ni1267     O1272   1.900       .  S
C1268      O1278   1.272       .  A
C1268      C1307   1.432       .  S
O1269     Ni1285   1.919       .  S
O1269      C1275   1.273       .  A
O1270      C1275   1.276       .  A
C1271      C1325   1.430       .  S
O1272      C1274   1.266       .  A
O1273     Ni1284   1.930       .  S
C1274      O1280   1.272       .  A
C1274      C1324   1.432       .  S
C1275      C1297   1.440       .  S
H1276      O1277   0.966       .  S
O1277     Ni1285   1.912       .  S
O1277     Ni1279   1.903       .  S
O1277     Ni1284   1.911       .  S
O1278     Ni1279   1.932       .  S
Ni1279     O1283   1.895       .  S
Ni1279     O1281   1.919       .  S
O1280     Ni1285   1.932       .  S
C1282      O1283   1.264       .  A
C1282      C1306   1.430       .  S
C1287      H1288   1.112       .  S
C1287      C1293   1.536       .  S
C1287      C1292   1.532       .  S
C1287      C1291   1.538       .  S
C1289      H1290   1.112       .  S
C1289      C1295   1.532       .  S
C1289      C1294   1.538       .  S
C1289      C1296   1.536       .  S
C1291      C1294   1.373       .  D
C1291      C1298   1.449       .  S
C1292      C1295   1.362       .  D
C1292      C1315   1.441       .  S
C1293      C1296   1.369       .  D
C1293      C1314   1.443       .  S
C1294      C1303   1.448       .  S
C1295      C1333   1.441       .  S
C1296      C1335   1.443       .  S
C1297      C1298   1.209       .  T
C1299      C1300   1.209       .  T
C1301      C1302   1.209       .  T
C1303      C1304   1.209       .  T
C1305      C1306   1.203       .  T
C1307      C1308   1.204       .  T
C1309      C1310   1.204       .  T
C1311      C1312   1.203       .  T
C1313      C1314   1.204       .  T
C1315      C1316   1.203       .  T
C1317      C1318   1.203       .  T
C1319      C1320   1.204   1_556  T
C1321      C1322   1.209       .  T
C1323      C1324   1.204       .  T
C1325      C1326   1.203       .  T
C1327      C1328   1.203       .  T
C1329      C1330   1.204       .  T
C1331      C1332   1.209       .  T
C1333      C1334   1.203       .  T
C1335      C1336   1.204       .  T
C1337      C1338   1.209       .  T
C1339      C1340   1.204   1_556  T
C1341      C1342   1.203       .  T
C1343      C1344   1.209       .  T
O1345     Ni1351   1.935       .  S
O1346     Ni1369   1.895       .  S
O1346      C1355   1.264       .  A
O1347     Ni1351   1.911       .  S
O1347      H1370   0.966   1_655  S
C1348      O1357   1.276       .  A
C1348      C1529   1.440       .  S
O1349     Ni1368   1.935   1_565  S
O1350      C1352   1.266       .  A
C1352      O1362   1.272       .  A
C1352      C1528   1.432       .  S
O1353     Ni1369   1.919       .  S
O1354      C1359   1.276       .  A
C1355      C1534   1.430       .  S
O1356      C1358   1.266       .  A
C1358      O1364   1.272       .  A
C1358      C1532   1.432       .  S
C1359      C1535   1.440   1_655  S
H1360      O1361   0.966       .  S
O1361     Ni1368   1.911   1_565  S
Ni1363     O1367   1.895   1_556  S
Ni1363     O1365   1.919       .  S
C1366      O1367   1.264       .  A
C1366      C1526   1.430       .  S
C1371      H1372   1.112       .  S
C1371      C1376   1.536       .  S
C1373      H1374   1.112       .  S
C1373      C1380   1.532   1_455  S
C1376      C1379   1.369       .  D
C1376      C1521   1.443       .  S
C1377      C1380   1.362       .  D
C1377      C1519   1.441       .  S
C1378      C1523   1.448       .  S
C1379      C1515   1.443       .  S
C1380      C1518   1.441       .  S
O1381     Ni1387   1.935       .  S
O1382     Ni1405   1.895   1_554  S
O1382      C1391   1.264       .  A
O1383     Ni1387   1.911       .  S
O1383      H1406   0.966       .  S
C1384      O1393   1.276       .  A
C1384      C1513   1.440   1_655  S
O1385     Ni1404   1.935       .  S
O1386     Ni1404   1.900       .  S
O1386      C1388   1.266       .  A
Ni1387     O1390   1.930       .  S
Ni1387     O1392   1.900       .  S
C1388      O1398   1.272       .  A
C1388      C1512   1.432       .  S
O1389     Ni1405   1.919       .  S
O1390      C1395   1.276       .  A
C1391      C1508   1.430       .  S
O1392      C1394   1.266       .  A
O1393     Ni1404   1.930       .  S
C1394      O1400   1.272       .  A
C1394      C1505   1.432       .  S
C1395      C1524   1.440       .  S
H1396      O1397   0.966   1_455  S
O1397     Ni1404   1.911       .  S
Ni1399     O1403   1.895       .  S
Ni1399     O1401   1.919       .  S
C1402      O1403   1.264       .  A
C1402      C1509   1.430       .  S
C1407      H1408   1.112       .  S
C1407      C1412   1.532       .  S
C1409      H1410   1.112       .  S
C1409      C1416   1.536       .  S
C1411      C1536   1.448       .  S
C1412      C1415   1.362       .  D
C1412      C1503   1.441       .  S
C1413      C1416   1.369       .  D
C1413      C1501   1.443       .  S
C1415      C1497   1.441       .  S
C1416      C1500   1.443       .  S
O1417     Ni1423   1.935       .  S
O1417      C1438   1.271       .  A
O1418     Ni1441   1.895       .  S
O1418      C1427   1.264       .  A
O1419     Ni1423   1.911       .  S
O1419     Ni1435   1.912       .  S
O1419      H1442   0.966       .  S
C1420      O1437   1.273       .  A
C1420      O1429   1.276       .  A
C1420      C1496   1.440       .  S
O1421     Ni1440   1.935   1_565  S
O1421      C1427   1.271       .  A
O1422      C1424   1.266       .  A
C1424      O1434   1.272       .  A
C1424      C1522   1.432       .  S
O1425     Ni1441   1.919       .  S
O1425      C1431   1.273       .  A
O1426      C1431   1.276       .  A
C1427      C1504   1.430       .  S
O1428      C1430   1.266       .  A
C1430      O1436   1.272       .  A
C1430      C1502   1.432       .  S
C1431      C1493   1.440       .  S
H1432      O1433   0.966       .  S
O1433     Ni1441   1.912       .  S
O1433     Ni1440   1.911   1_565  S
O1434     Ni1435   1.932       .  S
Ni1435     O1439   1.895       .  S
Ni1435     O1437   1.919       .  S
O1436     Ni1441   1.932       .  S
C1438      O1439   1.264       .  A
C1438      C1520   1.430       .  S
C1443      H1444   1.112       .  S
C1443      C1449   1.532       .  S
C1443      C1448   1.536       .  S
C1443      C1447   1.538       .  S
C1445      H1446   1.112       .  S
C1445      C1451   1.536       .  S
C1445      C1450   1.538       .  S
C1445      C1452   1.532       .  S
C1447      C1450   1.373       .  D
C1447      C1492   1.448       .  S
C1448      C1451   1.369       .  D
C1448      C1511   1.443       .  S
C1449      C1452   1.362       .  D
C1449      C1510   1.441       .  S
C1450      C1494   1.449       .  S
C1451      C1531   1.443       .  S
C1452      C1533   1.441       .  S
O1453     Ni1459   1.935       .  S
O1453      C1474   1.271       .  A
O1454     Ni1477   1.895       .  S
O1454      C1463   1.264       .  A
O1455     Ni1459   1.911       .  S
O1455     Ni1477   1.903       .  S
O1455     Ni1471   1.912       .  S
O1455      H1478   0.966       .  S
C1456      O1473   1.273       .  A
C1456      O1465   1.276       .  A
C1456      C1491   1.440       .  S
O1457     Ni1476   1.935       .  S
O1457      C1463   1.271       .  A
O1458     Ni1476   1.900       .  S
O1458      C1460   1.266       .  A
Ni1459     O1462   1.930       .  S
Ni1459     O1464   1.900       .  S
C1460      O1470   1.272       .  A
C1460      C1499   1.432       .  S
O1461     Ni1477   1.919       .  S
O1461      C1467   1.273       .  A
O1462      C1467   1.276       .  A
C1463      C1517   1.430       .  S
O1464      C1466   1.266       .  A
O1465     Ni1476   1.930       .  S
C1466      O1472   1.272       .  A
C1466      C1516   1.432       .  S
C1467      C1489   1.440       .  S
H1468      O1469   0.966       .  S
O1469     Ni1477   1.912       .  S
O1469     Ni1471   1.903       .  S
O1469     Ni1476   1.911       .  S
O1470     Ni1471   1.932       .  S
Ni1471     O1475   1.895       .  S
Ni1471     O1473   1.919       .  S
O1472     Ni1477   1.932       .  S
C1474      O1475   1.264       .  A
C1474      C1498   1.430       .  S
C1479      H1480   1.112       .  S
C1479      C1485   1.536       .  S
C1479      C1484   1.532       .  S
C1479      C1483   1.538       .  S
C1481      H1482   1.112       .  S
C1481      C1487   1.532       .  S
C1481      C1486   1.538       .  S
C1481      C1488   1.536       .  S
C1483      C1486   1.373       .  D
C1483      C1490   1.449       .  S
C1484      C1487   1.362       .  D
C1484      C1507   1.441   1_556  S
C1485      C1488   1.369       .  D
C1485      C1506   1.443       .  S
C1486      C1495   1.449       .  S
C1487      C1525   1.441   1_556  S
C1488      C1527   1.443   1_556  S
C1489      C1490   1.209       .  T
C1491      C1492   1.209       .  T
C1493      C1494   1.209       .  T
C1495      C1496   1.209       .  T
C1497      C1498   1.203       .  T
C1499      C1500   1.204       .  T
C1501      C1502   1.204       .  T
C1503      C1504   1.203       .  T
C1505      C1506   1.204       .  T
C1507      C1508   1.203       .  T
C1509      C1510   1.203       .  T
C1511      C1512   1.204       .  T
C1513      C1514   1.209       .  T
C1515      C1516   1.204       .  T
C1517      C1518   1.203       .  T
C1519      C1520   1.203       .  T
C1521      C1522   1.204       .  T
C1523      C1524   1.209       .  T
C1525      C1526   1.203       .  T
C1527      C1528   1.204   1_554  T
C1529      C1530   1.209       .  T
C1531      C1532   1.204       .  T
C1533      C1534   1.203       .  T
C1535      C1536   1.209       .  T
