geometry optimzed in LAMMPS
_audit_creation_date              2020-11-30 
_audit_creation_method            'lammps2cif' 
_symmetry_space_group_name_H-M    'P1' 
_symmetry_Int_Tables_number       1 
_symmetry_cell_setting            triclinic 
loop_ 
_symmetry_equiv_pos_as_xyz 
  x,y,z 
_cell_length_a                    55.11653878 
_cell_length_b                    55.16288798604414 
_cell_length_c                    38.9125354991605 
_cell_angle_alpha                 89.87857767272268 
_cell_angle_beta                  90.07708923219214 
_cell_angle_gamma                 89.99057684373494 
loop_ 
_atom_site_label 
_atom_site_type_symbol 
_atom_site_fract_x 
_atom_site_fract_y 
_atom_site_fract_z 
_atom_site_charge 
N1          N  0.70285531  0.71038343  0.32041806    -0.26900
N2          N  0.71832661  0.72426218  0.30344630    -0.34800
C3          C  0.73081534  0.73784528  0.32606082     0.01400
C4          C  0.72287840  0.73215040  0.35881353     0.07400
C5          C  0.70512185  0.71472867  0.35426747    -0.05700
H6          H  0.74496087  0.75054032  0.31916440     0.08100
H7          H  0.69486177  0.70556429  0.37409703     0.09300
Cu8        Cu  0.72222502  0.72363180  0.25040845     0.44200
Cu9        Cu  0.67973616  0.68571092  0.29701149     0.42000
Cu10       Cu  0.68380859  0.68153676  0.20435518     0.43900
N11         N  0.72155068  0.72062692  0.19725650    -0.34300
N12         N  0.70749077  0.70524814  0.18047193    -0.28600
C13         C  0.71078394  0.70825990  0.14649510    -0.04700
C14         C  0.72777418  0.72637379  0.14169378     0.07500
C15         C  0.73422576  0.73381144  0.17438383     0.01300
H16         H  0.70135642  0.69811824  0.12681213     0.09000
H17         H  0.74700254  0.74791382  0.18110678     0.08100
N18         N  0.65940152  0.66188426  0.23356751    -0.35800
N19         N  0.65780788  0.66338562  0.26739608    -0.27900
C20         C  0.63938525  0.64930665  0.27817676    -0.03200
C21         C  0.62888538  0.63856195  0.24974370     0.05400
C22         C  0.64204350  0.64688942  0.22189944     0.03500
H23         H  0.63368391  0.64751773  0.30465726     0.08600
H24         H  0.63894845  0.64283540  0.19506798     0.08100
N25         N  0.75716429  0.75727289  0.07031773    -0.26900
N26         N  0.74253371  0.74253447  0.05334614    -0.34800
C27         C  0.72987058  0.72918251  0.07606935     0.01400
C28         C  0.73687836  0.73592006  0.10884578     0.07400
C29         C  0.75418247  0.75375148  0.10423691    -0.05700
H30         H  0.71644040  0.71573515  0.06919386     0.08100
H31         H  0.76385186  0.76355322  0.12402966     0.09300
Cu32       Cu  0.73996607  0.74184315  0.50015121     0.44200
Cu33       Cu  0.78024383  0.78188030  0.04695141     0.42000
Cu34       Cu  0.77942765  0.78342856  0.45419839     0.43900
N35         N  0.74003518  0.74576387  0.44710591    -0.34300
N36         N  0.75451488  0.76077996  0.43031489    -0.28600
C37         C  0.75033558  0.75861311  0.39637962    -0.04700
C38         C  0.73238420  0.74140875  0.39163349     0.07500
C39         C  0.72623052  0.73369679  0.42432223     0.01300
H40         H  0.75989346  0.76861342  0.37665332     0.09000
H41         H  0.71301841  0.72000120  0.43108463     0.08100
N42         N  0.80091800  0.80603386  0.48404904    -0.35800
N43         N  0.80094307  0.80565573  0.01802023    -0.27900
C44         C  0.81545357  0.82343709  0.02968211    -0.03200
C45         C  0.82502751  0.83556375  0.50165499     0.05400
C46         C  0.81551463  0.82401582  0.47316676     0.03500
H47         H  0.81838639  0.82748549  0.05655135     0.08600
H48         H  0.81839939  0.82878618  0.44649954     0.07500
N49         N  0.64867447  0.25669432  0.18621600    -0.26900
N50         N  0.66394254  0.24248208  0.20305463    -0.34800
C51         C  0.67698702  0.22966114  0.18026697     0.01400
C52         C  0.66956513  0.23616844  0.14756550     0.07400
C53         C  0.65158110  0.25330043  0.15227012    -0.05700
H54         H  0.69101247  0.21678748  0.18705747     0.08100
H55         H  0.64157809  0.26288697  0.13253556     0.09300
Cu56       Cu  0.66667875  0.24143504  0.25612524     0.44200
Cu57       Cu  0.62531908  0.28086171  0.20983183     0.42000
Cu58       Cu  0.62553438  0.28116977  0.30236302     0.43900
N59         N  0.66476573  0.24327851  0.30920668    -0.34300
N60         N  0.64960512  0.25755622  0.32600000    -0.28600
C61         C  0.65291914  0.25445869  0.35995638    -0.04700
C62         C  0.67102828  0.23744152  0.36471781     0.07500
C63         C  0.67813648  0.23071586  0.33203917     0.01300
H64         H  0.64297207  0.26403569  0.37966096     0.09000
H65         H  0.69202898  0.21772267  0.32528462     0.08100
N66         N  0.60494428  0.30479968  0.27287165    -0.35800
N67         N  0.60502949  0.30482030  0.23890528    -0.27900
C68         C  0.59085311  0.32298248  0.22747864    -0.03200
C69         C  0.58137382  0.33490670  0.25561992     0.05400
C70         C  0.59064079  0.32289573  0.28400386     0.03500
H71         H  0.58797029  0.32739007  0.20067360     0.08600
H72         H  0.58767194  0.32725556  0.31075723     0.07500
N73         N  0.70253486  0.20890189  0.43637153    -0.26900
N74         N  0.68721682  0.22303628  0.45310905    -0.34800
C75         C  0.67366126  0.23534329  0.43022550     0.01400
C76         C  0.68080742  0.22859450  0.39757161     0.07400
C77         C  0.69913550  0.21181951  0.40239524    -0.05700
H78         H  0.65963897  0.24820873  0.43692883     0.08100
H79         H  0.70929850  0.20242878  0.38273001     0.09300
Cu80       Cu  0.68519444  0.22482077  0.50620614     0.44200
Cu81       Cu  0.72748102  0.18640328  0.46024870     0.42000
Cu82       Cu  0.72700502  0.18603810  0.05289831     0.43900
N83         N  0.68636893  0.22236782  0.05932601    -0.34300
N84         N  0.70158793  0.20816546  0.07627492    -0.28600
C85         C  0.69782304  0.21076182  0.11018444    -0.04700
C86         C  0.67935771  0.22738506  0.11477400     0.07500
C87         C  0.67248990  0.23438316  0.08202662     0.01300
H88         H  0.70791712  0.20133492  0.12997966     0.09000
H89         H  0.65855400  0.24733166  0.07514811     0.08100
N90         N  0.75101838  0.16583151  0.02376609    -0.35800
N91         N  0.75125553  0.16608796  0.48979591    -0.27900
C92         C  0.76923669  0.15165680  0.47862768    -0.03200
C93         C  0.78080943  0.14183197  0.50692307     0.05400
C94         C  0.76879693  0.15115676  0.03515510     0.03500
H95         H  0.77364402  0.14867748  0.45188100     0.08600
H96         H  0.77282438  0.14782749  0.06196514     0.07500
N97         N  0.25533273  0.76141513  0.31459157    -0.26900
N98         N  0.24149305  0.77701320  0.29773880    -0.34800
C99         C  0.22946665  0.79078531  0.32053156     0.01400
C100        C  0.23610964  0.78347021  0.35322176     0.07400
C101        C  0.25250507  0.76483136  0.34853037    -0.05700
H102        H  0.21687066  0.80505985  0.31374542     0.08100
H103        H  0.26172347  0.75448159  0.36825806     0.09300
Cu104      Cu  0.23978381  0.77912126  0.24463895     0.44200
Cu105      Cu  0.27753565  0.73621497  0.29107167     0.42000
Cu106      Cu  0.27936216  0.73795735  0.19859314     0.43900
N107        N  0.24230702  0.77787596  0.19156227    -0.34300
N108        N  0.25687049  0.76295524  0.17484627    -0.28600
C109        C  0.25407563  0.76644719  0.14088087    -0.04700
C110        C  0.23692551  0.78440915  0.13601524     0.07500
C111        C  0.22984733  0.79128094  0.16865407     0.01300
H112        H  0.26365190  0.75643759  0.12124011     0.09000
H113        H  0.21649236  0.80484666  0.17532001     0.08100
N114        N  0.29898875  0.71348683  0.22790378    -0.35800
N115        N  0.29818495  0.71273956  0.26183192    -0.27900
C116        C  0.31227574  0.69447155  0.27308182    -0.03200
C117        C  0.32241436  0.68322446  0.24485623     0.05400
C118        C  0.31364764  0.69573792  0.21660837     0.03500
H119        H  0.31477014  0.68962479  0.29981311     0.08600
H120        H  0.31733814  0.69207128  0.18982651     0.07500
N121        N  0.20666419  0.81399689  0.06412665    -0.26900
N122        N  0.22122861  0.79900681  0.04752914    -0.34800
C123        C  0.23435590  0.78632586  0.07050414     0.01400
C124        C  0.22770272  0.79370301  0.10308865     0.07400
C125        C  0.21013978  0.81125858  0.09811836    -0.05700
H126        H  0.24763946  0.77267136  0.06391297     0.08100
H127        H  0.20041755  0.82117677  0.11770751     0.09300
Cu128      Cu  0.22267544  0.79645040  0.49452315     0.44200
Cu129      Cu  0.18219596  0.83706235  0.04013673     0.42000
Cu130      Cu  0.18353594  0.83838708  0.44796329     0.43900
N131        N  0.22138294  0.79911548  0.44149157    -0.34300
N132        N  0.20741830  0.81461762  0.42465345    -0.28600
C133        C  0.21068037  0.81158683  0.39072014    -0.04700
C134        C  0.22746152  0.79329529  0.38602049     0.07500
C135        C  0.23391063  0.78580028  0.41869965     0.01300
H136        H  0.20124450  0.82173712  0.37099180     0.09000
H137        H  0.24658466  0.77159249  0.42547870     0.08100
N138        N  0.15878009  0.85788384  0.47675525    -0.35800
N139        N  0.15818876  0.85730614  0.01068778    -0.27900
C140        C  0.13946430  0.87086761  0.02166765    -0.03200
C141        C  0.12772756  0.88038782  0.49325592     0.05400
C142        C  0.14047983  0.87182946  0.46518140     0.03500
H143        H  0.13454072  0.87330333  0.04834404     0.08600
H144        H  0.13656497  0.87512052  0.43832879     0.07500
O145        O  0.97580123  0.03980041  0.47195974    -0.72600
O146        O  0.93161331  0.98194514  0.46977346    -0.73600
O147        O  0.92479718  0.03302093  0.47134229    -0.62200
O148        O  0.98268929  0.98875428  0.47026953    -0.70600
O149        O  0.98243951  0.98779189  0.02731478    -0.70200
O150        O  0.92458977  0.03206950  0.02839729    -0.61400
O151        O  0.93135384  0.98119649  0.02683585    -0.73900
O152        O  0.97561973  0.03883596  0.02901940    -0.72700
Cu153      Cu  0.95373562  0.01092114  0.46882694     1.04600
Cu154      Cu  0.95351407  0.00993857  0.02987742     1.04300
C155        C  0.98259422  0.04845030  0.50083059     0.93600
C156        C  0.92451312  0.97249668  0.49803914     0.92700
C157        C  0.91557201  0.03947758  0.50001174     0.84900
C158        C  0.99163474  0.98126096  0.49866323     0.91200
O159        O  0.42457059  0.48792081  0.27767391    -0.72600
O160        O  0.48231692  0.53225420  0.27941671    -0.73600
O161        O  0.43123292  0.53890663  0.27893498    -0.62200
O162        O  0.47556872  0.48120501  0.27825832    -0.70600
O163        O  0.47574875  0.48169869  0.22118604    -0.70200
O164        O  0.43195710  0.53984650  0.22187734    -0.61400
O165        O  0.48289157  0.53264439  0.22234852    -0.73900
O166        O  0.42464622  0.48900477  0.22061353    -0.72700
Cu167      Cu  0.45342360  0.51004757  0.28057272     1.04600
Cu168      Cu  0.45382997  0.51081360  0.21950943     1.04300
C169        C  0.41542213  0.48163379  0.24886964     0.93600
C170        C  0.49171382  0.53938244  0.25114162     0.92700
C171        C  0.42465262  0.54847049  0.25048175     0.84900
C172        C  0.48255751  0.47231350  0.24966037     0.91200
N173        N  0.15232997  0.26048806  0.07020600    -0.26900
N174        N  0.16626173  0.27597291  0.05335313    -0.34800
C175        C  0.17904142  0.28909430  0.07614636     0.01400
C176        C  0.17276575  0.28151195  0.10883953     0.07400
C177        C  0.15578733  0.26339229  0.10414597    -0.05700
H178        H  0.19189488  0.30312234  0.06936292     0.08100
H179        H  0.14671701  0.25294468  0.12387098     0.09300
Cu180      Cu  0.16721340  0.27872954  0.50022903     0.44200
Cu181      Cu  0.12949986  0.23584468  0.04660352     0.42000
Cu182      Cu  0.12697027  0.23864476  0.45394445     0.43900
N183        N  0.16429439  0.27814592  0.44711414    -0.34300
N184        N  0.14937514  0.26362696  0.43028547    -0.28600
C185        C  0.15203479  0.26729551  0.39634676    -0.04700
C186        C  0.16951273  0.28493535  0.39160235     0.07500
C187        C  0.17689945  0.29144465  0.42429426     0.01300
H188        H  0.14228453  0.25748571  0.37664014     0.09000
H189        H  0.19064622  0.30460076  0.43104389     0.08100
N190        N  0.10765737  0.21392736  0.48302654    -0.35800
N191        N  0.10856615  0.21283468  0.01694042    -0.27900
C192        C  0.09439605  0.19453745  0.02783752    -0.03200
C193        C  0.08417101  0.18362121  0.49937510     0.05400
C194        C  0.09294068  0.19634863  0.47138800     0.03500
H195        H  0.09194815  0.18941997  0.05446640     0.08600
H196        H  0.08913304  0.19301446  0.44453873     0.07500
N197        N  0.20161386  0.31263961  0.32000406    -0.26900
N198        N  0.18618175  0.29863193  0.30323252    -0.34800
C199        C  0.17210599  0.28692748  0.32607068     0.01400
C200        C  0.17907481  0.29392515  0.35873679     0.07400
C201        C  0.19777377  0.31026812  0.35394951    -0.05700
H202        H  0.15811477  0.27402214  0.31935315     0.08100
H203        H  0.20814610  0.31944304  0.37363586     0.09300
Cu204      Cu  0.18548275  0.29565101  0.25018326     0.44200
Cu205      Cu  0.22774192  0.33368243  0.29616907     0.42000
Cu206      Cu  0.22901702  0.33296848  0.20362404     0.43900
N207        N  0.18823952  0.29673616  0.19710660    -0.34300
N208        N  0.20388192  0.31049085  0.18023906    -0.28600
C209        C  0.20072132  0.30725471  0.14630378    -0.04700
C210        C  0.18227943  0.29062112  0.14162990     0.07500
C211        C  0.17477675  0.28429915  0.17432962     0.01300
H212        H  0.21118175  0.31628126  0.12655784     0.09000
H213        H  0.16052975  0.27169201  0.18113193     0.08100
N214        N  0.25238186  0.35366502  0.23317763    -0.35800
N215        N  0.25208423  0.35359479  0.26713895    -0.27900
C216        C  0.26954340  0.36846789  0.27879137    -0.03200
C217        C  0.28129425  0.37847525  0.25077583     0.05400
C218        C  0.26995901  0.36873916  0.22226387     0.03500
H219        H  0.27326976  0.37179380  0.30566613     0.08600
H220        H  0.27428113  0.37217794  0.19557982     0.07500
C221        C  0.36625033  0.44331429  0.26588865     0.30100
C222        C  0.35081410  0.42908744  0.28621455    -0.36200
C223        C  0.33200490  0.41724535  0.26876456     0.16100
C224        C  0.32858077  0.41921907  0.23372426     0.21900
C225        C  0.34395146  0.43357013  0.21339496    -0.34300
C226        C  0.36283152  0.44536877  0.23084887     0.16000
O227        O  0.38513861  0.45574886  0.27684217    -0.26300
C228        C  0.39400144  0.46583780  0.24844263     0.05800
C229        C  0.38087175  0.46002526  0.21902879    -0.31200
O230        O  0.31021396  0.40601687  0.22270429    -0.23100
C231        C  0.30174997  0.39555059  0.25110374    -0.03100
C232        C  0.31455471  0.40193640  0.28053264    -0.17500
H233        H  0.35341661  0.42721310  0.31365871     0.20500
H234        H  0.34153276  0.43519570  0.18588565     0.18900
H235        H  0.38413990  0.46579813  0.19284032     0.18800
H236        H  0.31173049  0.39582916  0.30666559     0.14700
C237        C  0.04646663  0.13402090  0.01670951     0.30100
C238        C  0.03402654  0.11717549  0.03719496    -0.36200
C239        C  0.02071787  0.09951361  0.01944684     0.16100
C240        C  0.01971947  0.09850722  0.98402263     0.21900
C241        C  0.03210991  0.11536884  0.96356687    -0.34300
C242        C  0.04539460  0.13301381  0.98129762     0.16000
O243        O  0.06016713  0.15195826  0.02781065    -0.26300
C244        C  0.06789783  0.16256976  0.49911333     0.05800
C245        C  0.05927233  0.15157222  0.46939857    -0.31200
O246        O  0.00625214  0.08044951  0.47281627    -0.23100
C247        C  0.99852354  0.06973797  0.50141772    -0.03100
C248        C  0.00692571  0.08080775  0.03123079    -0.17500
H249        H  0.03472746  0.11776040  0.06497267     0.20500
H250        H  0.03147203  0.11474463  0.43579244     0.18900
H251        H  0.06282120  0.15642105  0.44292082     0.18800
H252        H  0.00337313  0.07579339  0.05765543     0.14700
C253        C  0.07687402  0.91627735  0.01147289     0.30100
C254        C  0.05995607  0.92817850  0.03239944    -0.36200
C255        C  0.04225209  0.94186663  0.01520500     0.16100
C256        C  0.04119160  0.94368735  0.97985140     0.21900
C257        C  0.05806779  0.93170440  0.95890387    -0.34300
C258        C  0.07582573  0.91806368  0.97611738     0.16000
O259        O  0.09515820  0.90279936  0.02214615    -0.26300
C260        C  0.10596975  0.89584468  0.49326614     0.05800
C261        C  0.09470939  0.90476806  0.46380775    -0.31200
O262        O  0.02324836  0.95769157  0.46928209    -0.23100
C263        C  0.01271842  0.96494385  0.49826079    -0.03100
C264        C  0.02376010  0.95563924  0.02762089    -0.17500
H265        H  0.06065758  0.92699433  0.06014201     0.20500
H266        H  0.05748008  0.93304765  0.43117664     0.18900
H267        H  0.09977746  0.90200551  0.43724852     0.18800
H268        H  0.01891984  0.95869615  0.05420799     0.14700
C269        C  0.38790263  0.59859397  0.23215434     0.30100
C270        C  0.37644671  0.61587917  0.21124028    -0.36200
C271        C  0.36206199  0.63296737  0.22832050     0.16100
C272        C  0.35913473  0.63306784  0.26354291     0.21900
C273        C  0.37059527  0.61577040  0.28447918    -0.34300
C274        C  0.38501110  0.59868116  0.26739003     0.16000
O275        O  0.40216254  0.58096218  0.22158063    -0.26300
C276        C  0.40853051  0.56962957  0.25041015     0.05800
C277        C  0.39841701  0.57984566  0.27974175    -0.31200
O278        O  0.34487269  0.65073707  0.27403810    -0.23100
C279        C  0.33859189  0.66206813  0.24514974    -0.03100
C280        C  0.34873910  0.65180507  0.21589556    -0.17500
H281        H  0.37860427  0.61599572  0.18360649     0.20500
H282        H  0.36844202  0.61566114  0.31211403     0.18900
H283        H  0.40060685  0.57418479  0.30621353     0.18800
H284        H  0.34663400  0.65739558  0.18938889     0.14700
C285        C  0.86525683  0.07581461  0.01906590     0.30100
C286        C  0.84798548  0.08708753  0.04012439    -0.36200
C287        C  0.83083030  0.10162210  0.02321049     0.16100
C288        C  0.83064028  0.10480270  0.98801716     0.21900
C289        C  0.84788393  0.09350788  0.96695842    -0.34300
C290        C  0.86504811  0.07899404  0.98386896     0.16000
O291        O  0.88303253  0.06156258  0.02943231    -0.26300
C292        C  0.89431820  0.05551886  0.50049114     0.05800
C293        C  0.88392228  0.06581820  0.47132654    -0.31200
O294        O  0.81302911  0.11924717  0.47765738    -0.23100
C295        C  0.80181221  0.12542754  0.50659030    -0.03100
C296        C  0.81208680  0.11499614  0.03576316    -0.17500
H297        H  0.84797229  0.08475063  0.06774001     0.20500
H298        H  0.84794990  0.09592379  0.43935543     0.18900
H299        H  0.88951060  0.06390465  0.44481654     0.18800
H300        H  0.80659156  0.11699954  0.06229098     0.14700
C301        C  0.51853296  0.42161004  0.26808493     0.30100
C302        C  0.52968446  0.40414983  0.28904178    -0.36200
C303        C  0.54323725  0.38639773  0.27194699     0.16100
C304        C  0.54566881  0.38582164  0.23666054     0.21900
C305        C  0.53451074  0.40330209  0.21567305    -0.34300
C306        C  0.52093734  0.42107277  0.23278513     0.16000
O307        O  0.50490358  0.43973900  0.27866177    -0.26300
C308        C  0.49845019  0.45095671  0.24977423     0.05800
C309        C  0.50790581  0.44017254  0.22040351    -0.31200
O310        O  0.55925571  0.36760348  0.22618970    -0.23100
C311        C  0.56561297  0.35641031  0.25516899    -0.03100
C312        C  0.55615696  0.36730007  0.28443414    -0.17500
H313        H  0.52790011  0.40438043  0.31672919     0.20500
H314        H  0.53627002  0.40305159  0.18798291     0.18900
H315        H  0.50541702  0.44555519  0.19386826     0.18800
H316        H  0.55850813  0.36198526  0.31101355     0.14700
C317        C  0.86219949  0.88556720  0.48374364     0.30100
C318        C  0.87522068  0.90183048  0.46301434    -0.36200
C319        C  0.88722248  0.92061323  0.48031992     0.16100
C320        C  0.88646889  0.92320682  0.51557925     0.21900
C321        C  0.87340067  0.90699036  0.53629083    -0.34300
C322        C  0.86145167  0.88818400  0.51899379     0.16000
O323        O  0.84963775  0.86670334  0.47299970    -0.26300
C324        C  0.84079694  0.85707072  0.50175213     0.05800
C325        C  0.84756802  0.86967242  0.03117467    -0.31200
O326        O  0.89933197  0.94182407  0.02640569    -0.23100
C327        C  0.90839223  0.95132632  0.49772201    -0.03100
C328        C  0.90143487  0.93892295  0.46822297    -0.17500
H329        H  0.87600587  0.89992179  0.43536791     0.20500
H330        H  0.87272416  0.90882437  0.06395025     0.18900
H331        H  0.84281906  0.86587645  0.05761590     0.18800
H332        H  0.90638691  0.94267930  0.44183711     0.14700
C333        C  0.57804595  0.60237791  0.26675229     0.30100
C334        C  0.56069328  0.59063529  0.28719450    -0.36200
C335        C  0.54284931  0.57754699  0.26946139     0.16100
C336        C  0.54208007  0.57614917  0.23405955     0.21900
C337        C  0.55942714  0.58790114  0.21361242    -0.34300
C338        C  0.57731967  0.60091801  0.23135803     0.16000
O339        O  0.59629615  0.61565596  0.27791965    -0.26300
C340        C  0.60743732  0.62273757  0.24930677     0.05800
C341        C  0.59644947  0.61408875  0.21954871    -0.31200
O342        O  0.52393447  0.56272248  0.22291035    -0.23100
C343        C  0.51297261  0.55540053  0.25155040    -0.03100
C344        C  0.52391829  0.56409151  0.28129745    -0.17500
H345        H  0.56111537  0.59158400  0.31496116     0.20500
H346        H  0.55905362  0.58688810  0.18584930     0.18900
H347        H  0.60165660  0.61719981  0.19310433     0.18800
H348        H  0.51877595  0.56080301  0.30773376     0.14700
N349        N  0.70285921  0.71037771  0.82041627    -0.26900
N350        N  0.71832801  0.72425966  0.80344525    -0.34800
C351        C  0.73081595  0.73784263  0.82606083     0.01400
C352        C  0.72288097  0.73214434  0.85881334     0.07400
C353        C  0.70512661  0.71472057  0.85426618    -0.05700
H354        H  0.74495915  0.75054047  0.81916513     0.08100
H355        H  0.69486792  0.70555400  0.87409506     0.09300
Cu356      Cu  0.72222355  0.72363414  0.75040672     0.44200
Cu357      Cu  0.67974046  0.68570585  0.79700823     0.42000
Cu358      Cu  0.68380744  0.68153881  0.70435167     0.43900
N359        N  0.72154882  0.72063002  0.69725456    -0.34300
N360        N  0.70748913  0.70525128  0.68046956    -0.28600
C361        C  0.71078291  0.70826290  0.64649282    -0.04700
C362        C  0.72777342  0.72637657  0.64169203     0.07500
C363        C  0.73422449  0.73381431  0.67438224     0.01300
H364        H  0.70135600  0.69812095  0.62680960     0.09000
H365        H  0.74700148  0.74791636  0.68110554     0.08100
N366        N  0.65940203  0.66188386  0.73356356    -0.35800
N367        N  0.65781056  0.66338261  0.76739257    -0.27900
C368        C  0.63938856  0.64930297  0.77817353    -0.03200
C369        C  0.62888679  0.63856051  0.74974022     0.05400
C370        C  0.64204318  0.64689001  0.72189546     0.03500
H371        H  0.63368884  0.64751223  0.80465452     0.08600
H372        H  0.63894632  0.64283813  0.69506374     0.08100
N373        N  0.75716737  0.75727284  0.57031684    -0.26900
N374        N  0.74253405  0.74253733  0.55334497    -0.34800
C375        C  0.72986921  0.72918672  0.57606780     0.01400
C376        C  0.73687867  0.73592223  0.60884434     0.07400
C377        C  0.75418562  0.75375094  0.60423591    -0.05700
H378        H  0.71643669  0.71574179  0.56919199     0.08100
H379        H  0.76385711  0.76355042  0.62402888     0.09300
Cu380      Cu  0.73996681  0.74183838  0.00015208     0.44200
Cu381      Cu  0.78025071  0.78187676  0.54695092     0.42000
Cu382      Cu  0.77941786  0.78343386  0.95419931     0.43900
N383        N  0.74003501  0.74575935  0.94710648    -0.34300
N384        N  0.75451072  0.76077950  0.93031584    -0.28600
C385        C  0.75033196  0.75861226  0.89638054    -0.04700
C386        C  0.73238509  0.74140340  0.89163383     0.07500
C387        C  0.72623340  0.73368918  0.92432232     0.01300
H388        H  0.75988705  0.76861563  0.87665464     0.09000
H389        H  0.71302461  0.71999028  0.93108423     0.08100
N390        N  0.80090633  0.80604101  0.98404931    -0.35800
N391        N  0.80095330  0.80564935  0.51802000    -0.27900
C392        C  0.81546357  0.82343073  0.52968236    -0.03200
C393        C  0.82501617  0.83557076  0.00165438     0.05400
C394        C  0.81550213  0.82402342  0.97316652     0.03500
H395        H  0.81839449  0.82748029  0.55655163     0.08600
H396        H  0.81838658  0.82879362  0.94649917     0.07500
N397        N  0.64867552  0.25669263  0.68621821    -0.26900
N398        N  0.66394437  0.24248046  0.70305557    -0.34800
C399        C  0.67698948  0.22966137  0.68026645     0.01400
C400        C  0.66956699  0.23616973  0.64756555     0.07400
C401        C  0.65158210  0.25330048  0.65227197    -0.05700
H402        H  0.69101552  0.21678799  0.68705556     0.08100
H403        H  0.64157842  0.26288734  0.63253843     0.09300
Cu404      Cu  0.66668062  0.24143148  0.75612675     0.44200
Cu405      Cu  0.62531965  0.28085830  0.70983581     0.42000
Cu406      Cu  0.62553870  0.28116754  0.80236649     0.43900
N407        N  0.66477029  0.24327638  0.80920883    -0.34300
N408        N  0.64961070  0.25755502  0.82600246    -0.28600
C409        C  0.65292641  0.25445916  0.85995874    -0.04700
C410        C  0.67103552  0.23744203  0.86472012     0.07500
C411        C  0.67814205  0.23071469  0.83204133     0.01300
H412        H  0.64298021  0.26403706  0.87966337     0.09000
H413        H  0.69203402  0.21772091  0.82528675     0.08100
N414        N  0.60494797  0.30479754  0.77287650    -0.35800
N415        N  0.60503196  0.30481754  0.73891015    -0.27900
C416        C  0.59085578  0.32297985  0.72748379    -0.03200
C417        C  0.58137777  0.33490479  0.75562521     0.05400
C418        C  0.59064534  0.32289419  0.78400906     0.03500
H419        H  0.58797211  0.32738691  0.70067877     0.08600
H420        H  0.58767735  0.32725457  0.81076244     0.07500
N421        N  0.70253987  0.20890145  0.93637536    -0.26900
N422        N  0.68722358  0.22303824  0.95311198    -0.34800
C423        C  0.67366966  0.23534640  0.93022779     0.01400
C424        C  0.68081501  0.22859587  0.89757425     0.07400
C425        C  0.69914102  0.21181871  0.90239886    -0.05700
H426        H  0.65964848  0.24821324  0.93693046     0.08100
H427        H  0.70930243  0.20242571  0.88273417     0.09300
Cu428      Cu  0.68520013  0.22482228  0.00620863     0.44200
Cu429      Cu  0.72748158  0.18639892  0.96025491     0.42000
Cu430      Cu  0.72700643  0.18604546  0.55289255     0.43900
N431        N  0.68636664  0.22236949  0.55932403    -0.34300
N432        N  0.70158873  0.20816984  0.57627179    -0.28600
C433        C  0.69782611  0.21076673  0.61018168    -0.04700
C434        C  0.67935896  0.22738763  0.61477293     0.07500
C435        C  0.67248776  0.23438380  0.58202598     0.01300
H436        H  0.70792282  0.20134160  0.62997596     0.09000
H437        H  0.65854943  0.24733001  0.57514871     0.08100
N438        N  0.75102168  0.16584205  0.52376050    -0.35800
N439        N  0.75125248  0.16607859  0.98980149    -0.27900
C440        C  0.76923175  0.15164540  0.97863232    -0.03200
C441        C  0.78080332  0.14181792  0.00692689     0.05400
C442        C  0.76880202  0.15117013  0.53515056     0.03500
H443        H  0.77363905  0.14866697  0.95188543     0.08600
H444        H  0.77282960  0.14784197  0.56196082     0.07500
N445        N  0.25533655  0.76140906  0.81459175    -0.26900
N446        N  0.24150106  0.77701095  0.79773920    -0.34800
C447        C  0.22947815  0.79078590  0.82053206     0.01400
C448        C  0.23611882  0.78346860  0.85322213     0.07400
C449        C  0.25250942  0.76482549  0.84853066    -0.05700
H450        H  0.21688577  0.80506366  0.81374606     0.08100
H451        H  0.26172487  0.75447300  0.86825827     0.09300
Cu452      Cu  0.23979148  0.77912007  0.74463945     0.44200
Cu453      Cu  0.27753360  0.73620443  0.79107067     0.42000
Cu454      Cu  0.27935977  0.73795110  0.69859030     0.43900
N455        N  0.24231005  0.77787451  0.69156225    -0.34300
N456        N  0.25687048  0.76295186  0.67484452    -0.28600
C457        C  0.25407345  0.76644368  0.64087935    -0.04700
C458        C  0.23692477  0.78440740  0.63601569     0.07500
C459        C  0.22984988  0.79128040  0.66865554     0.01300
H460        H  0.26364684  0.75643246  0.62123744     0.09000
H461        H  0.21649684  0.80484757  0.67532313     0.08100
N462        N  0.29898442  0.71347797  0.72789954    -0.35800
N463        N  0.29818056  0.71272917  0.76182766    -0.27900
C464        C  0.31227112  0.69446056  0.77307596    -0.03200
C465        C  0.32240959  0.68321460  0.74484943     0.05400
C466        C  0.31364307  0.69572935  0.71660264     0.03500
H467        H  0.31476589  0.68961296  0.79980685     0.08600
H468        H  0.31733408  0.69206418  0.68982048     0.07500
N469        N  0.20665606  0.81399242  0.56413042    -0.26900
N470        N  0.22122416  0.79900689  0.54753102    -0.34800
C471        C  0.23435459  0.78632775  0.57050454     0.01400
C472        C  0.22769992  0.79370146  0.60309008     0.07400
C473        C  0.21013271  0.81125313  0.59812183    -0.05700
H474        H  0.24764132  0.77267675  0.56391171     0.08100
H475        H  0.20040789  0.82116759  0.61771224     0.09300
Cu476      Cu  0.22267980  0.79644751  0.99452199     0.44200
Cu477      Cu  0.18218090  0.83705244  0.54014312     0.42000
Cu478      Cu  0.18355577  0.83839932  0.94795909     0.43900
N479        N  0.22139153  0.79911549  0.94149097    -0.34300
N480        N  0.20743318  0.81462296  0.92465212    -0.28600
C481        C  0.21069675  0.81159232  0.89071912    -0.04700
C482        C  0.22747218  0.79329542  0.88602051     0.07500
C483        C  0.23391651  0.78579705  0.91869990     0.01300
H484        H  0.20126555  0.82174635  0.87099022     0.09000
H485        H  0.24658528  0.77158471  0.92547968     0.08100
N486        N  0.15880118  0.85789983  0.97674910    -0.35800
N487        N  0.15816920  0.85729143  0.51069407    -0.27900
C488        C  0.13944414  0.87085204  0.52167419    -0.03200
C489        C  0.12774947  0.88040546  0.99324942     0.05400
C490        C  0.14050232  0.87184733  0.96517503     0.03500
H491        H  0.13452188  0.87328928  0.54835076     0.08600
H492        H  0.13658810  0.87513899  0.93832239     0.07500
O493        O  0.97580271  0.03979789  0.97195327    -0.72600
O494        O  0.93161896  0.98193943  0.96976718    -0.73600
O495        O  0.92479867  0.03301499  0.97133638    -0.62200
O496        O  0.98269533  0.98875262  0.97026307    -0.70600
O497        O  0.98243334  0.98779379  0.52732132    -0.70200
O498        O  0.92458777  0.03207590  0.52840330    -0.61400
O499        O  0.93134743  0.98120235  0.52684214    -0.73900
O500        O  0.97561807  0.03883889  0.52902586    -0.72700
Cu501      Cu  0.95373925  0.01091712  0.96882060     1.04600
Cu502      Cu  0.95351004  0.00994289  0.52988385     1.04300
C503        C  0.98259533  0.04844783  0.00082422     0.93600
C504        C  0.92451951  0.97249064  0.99803301     0.92700
C505        C  0.91557307  0.03947079  0.00000606     0.84900
C506        C  0.99164197  0.98126044  0.99865671     0.91200
O507        O  0.42457189  0.48791902  0.77766799    -0.72600
O508        O  0.48231939  0.53225068  0.77941209    -0.73600
O509        O  0.43123583  0.53890407  0.77892692    -0.62200
O510        O  0.47557012  0.48120175  0.77825530    -0.70600
O511        O  0.47575161  0.48169446  0.72118301    -0.70200
O512        O  0.43196052  0.53984259  0.72186922    -0.61400
O513        O  0.48289503  0.53264042  0.72234394    -0.73900
O514        O  0.42464876  0.48900111  0.72060757    -0.72700
Cu515      Cu  0.45342562  0.51004476  0.78056723     1.04600
Cu516      Cu  0.45383318  0.51080953  0.71950391     1.04300
C517        C  0.41542340  0.48163186  0.74886383     0.93600
C518        C  0.49171666  0.53937890  0.75113728     0.92700
C519        C  0.42465577  0.54846718  0.75047310     0.84900
C520        C  0.48255957  0.47230972  0.74965802     0.91200
N521        N  0.15233833  0.26048418  0.57020346    -0.26900
N522        N  0.16627087  0.27596895  0.55335176    -0.34800
C523        C  0.17905161  0.28908853  0.57614590     0.01400
C524        C  0.17277587  0.28150508  0.60883857     0.07400
C525        C  0.15579636  0.26338657  0.60414365    -0.05700
H526        H  0.19190521  0.30311672  0.56936345     0.08100
H527        H  0.14672493  0.25293925  0.62386792     0.09300
Cu528      Cu  0.16720679  0.27873027  0.00022999     0.44200
Cu529      Cu  0.12950427  0.23584527  0.54659866     0.42000
Cu530      Cu  0.12697745  0.23863577  0.95394625     0.43900
N531        N  0.16429282  0.27814364  0.94711445    -0.34300
N532        N  0.14937835  0.26362014  0.93028543    -0.28600
C533        C  0.15203921  0.26728744  0.89634662    -0.04700
C534        C  0.16951300  0.28493146  0.89160248     0.07500
C535        C  0.17689602  0.29144433  0.92429475     0.01300
H536        H  0.14229225  0.25747451  0.87663986     0.09000
H537        H  0.19063878  0.30460447  0.93104479     0.08100
N538        N  0.10766418  0.21391949  0.98302881    -0.35800
N539        N  0.10856364  0.21283986  0.51693774    -0.27900
C540        C  0.09439419  0.19454235  0.52783573    -0.03200
C541        C  0.08417679  0.18361409  0.99937583     0.05400
C542        C  0.09294954  0.19633958  0.97138918     0.03500
H543        H  0.09195021  0.18942248  0.55446443     0.08600
H544        H  0.08914488  0.19300378  0.94453945     0.07500
N545        N  0.20160867  0.31264388  0.82000517    -0.26900
N546        N  0.18618210  0.29863044  0.80323302    -0.34800
C547        C  0.17210919  0.28692192  0.82607063     0.01400
C548        C  0.17907406  0.29392291  0.85873704     0.07400
C549        C  0.19776775  0.31027203  0.85395044    -0.05700
H550        H  0.15812260  0.27401170  0.81935259     0.08100
H551        H  0.20813599  0.31945105  0.87363719     0.09300
Cu552      Cu  0.18548666  0.29564740  0.75018361     0.44200
Cu553      Cu  0.22773150  0.33369459  0.79617172     0.42000
Cu554      Cu  0.22901459  0.33297248  0.70362667     0.43900
N555        N  0.18824570  0.29673079  0.69710685    -0.34300
N556        N  0.20388636  0.31048793  0.68024009    -0.28600
C557        C  0.20072763  0.30725077  0.64630465    -0.04700
C558        C  0.18228861  0.29061413  0.64162971     0.07500
C559        C  0.17478582  0.28429126  0.67432911     0.01300
H560        H  0.21118660  0.31627964  0.62655925     0.09000
H561        H  0.16054015  0.27168240  0.68113064     0.08100
N562        N  0.25237247  0.35367672  0.73318059    -0.35800
N563        N  0.25207202  0.35360986  0.76714188    -0.27900
C564        C  0.26952885  0.36848589  0.77879409    -0.03200
C565        C  0.28128114  0.37849149  0.75077837     0.05400
C566        C  0.26994902  0.36875148  0.72226665     0.03500
H567        H  0.27325359  0.37181392  0.80566875     0.08600
H568        H  0.27427378  0.37218699  0.69558262     0.07500
C569        C  0.36624451  0.44332193  0.76588611     0.30100
C570        C  0.35080482  0.42910001  0.78621377    -0.36200
C571        C  0.33199426  0.41725927  0.76876480     0.16100
C572        C  0.32857208  0.41922975  0.73372377     0.21900
C573        C  0.34394603  0.43357617  0.71339275    -0.34300
C574        C  0.36282748  0.44537341  0.73084564     0.16000
O575        O  0.38513470  0.45575413  0.77683848    -0.26300
C576        C  0.39400061  0.46583853  0.74843759     0.05800
C577        C  0.38087091  0.46002543  0.71902395    -0.31200
O578        O  0.31020426  0.40602851  0.72270476    -0.23100
C579        C  0.30173752  0.39556619  0.75110553    -0.03100
C580        C  0.31454148  0.40195370  0.78053436    -0.17500
H581        H  0.35340600  0.42722796  0.81365853     0.20500
H582        H  0.34152887  0.43519902  0.68588286     0.18900
H583        H  0.38414099  0.46579525  0.69283458     0.18800
H584        H  0.31171559  0.39584897  0.80666817     0.14700
C585        C  0.04646357  0.13402596  0.51671198     0.30100
C586        C  0.03402455  0.11718018  0.53719841    -0.36200
C587        C  0.02071665  0.09951707  0.51945131     0.16100
C588        C  0.01971815  0.09850985  0.48402716     0.21900
C589        C  0.03210759  0.11537169  0.46357052    -0.34300
C590        C  0.04539131  0.13301797  0.48130018     0.16000
O591        O  0.06016310  0.15196452  0.52781194    -0.26300
C592        C  0.06790284  0.16256352  0.99911272     0.05800
C593        C  0.05927700  0.15156731  0.96939718    -0.31200
O594        O  0.00625298  0.08044754  0.97281088    -0.23100
C595        C  0.99852404  0.06973573  0.00141192    -0.03100
C596        C  0.00692504  0.08081091  0.53123610    -0.17500
H597        H  0.03472554  0.11776584  0.56497612     0.20500
H598        H  0.03147457  0.11474242  0.93578874     0.18900
H599        H  0.06282634  0.15641660  0.94291976     0.18800
H600        H  0.00337230  0.07579723  0.55766095     0.14700
C601        C  0.07685568  0.91626436  0.51147918     0.30100
C602        C  0.05994100  0.92816989  0.53240581    -0.36200
C603        C  0.04223826  0.94185941  0.51521128     0.16100
C604        C  0.04117575  0.94367727  0.47985750     0.21900
C605        C  0.05804845  0.93168964  0.45890982    -0.34300
C606        C  0.07580532  0.91804764  0.47612347     0.16000
O607        O  0.09513922  0.90278564  0.52215260    -0.26300
C608        C  0.10599127  0.89586197  0.99325976     0.05800
C609        C  0.09473197  0.90478710  0.96380162    -0.31200
O610        O  0.02326213  0.95769908  0.96927594    -0.23100
C611        C  0.01272865  0.96494683  0.99825440    -0.03100
C612        C  0.02374988  0.95563660  0.52762736    -0.17500
H613        H  0.06064437  0.92698835  0.56014849     0.20500
H614        H  0.05750082  0.93306446  0.93117086     0.18900
H615        H  0.09980161  0.90202690  0.93724249     0.18800
H616        H  0.01891204  0.95869675  0.55421458     0.14700
C617        C  0.38790263  0.59858809  0.73214476     0.30100
C618        C  0.37644428  0.61587173  0.71123073    -0.36200
C619        C  0.36205892  0.63295922  0.72831141     0.16100
C620        C  0.35913330  0.63306034  0.76353411     0.21900
C621        C  0.37059623  0.61576453  0.78447022    -0.34300
C622        C  0.38501262  0.59867609  0.76738071     0.16000
O623        O  0.40216335  0.58095696  0.72157092    -0.26300
C624        C  0.40853317  0.56962572  0.75040072     0.05800
C625        C  0.39842024  0.57984199  0.77973246    -0.31200
O626        O  0.34487064  0.65072880  0.77402987    -0.23100
C627        C  0.33858780  0.66205886  0.74514170    -0.03100
C628        C  0.34873424  0.65179584  0.71588691    -0.17500
H629        H  0.37860058  0.61598770  0.68359675     0.20500
H630        H  0.36844432  0.61565588  0.81210531     0.18900
H631        H  0.40061131  0.57418195  0.80620438     0.18800
H632        H  0.34662770  0.65738580  0.68938026     0.14700
C633        C  0.86525937  0.07582608  0.51906882     0.30100
C634        C  0.84798859  0.08710073  0.54012616    -0.36200
C635        C  0.83083544  0.10163676  0.52321093     0.16100
C636        C  0.83064679  0.10481715  0.48801752     0.21900
C637        C  0.84788995  0.09352073  0.46695999    -0.34300
C638        C  0.86505201  0.07900536  0.48387181     0.16000
O639        O  0.88303317  0.06157225  0.52943640    -0.26300
C640        C  0.89431757  0.05551039  0.00048643     0.05800
C641        C  0.88391963  0.06580889  0.97132254    -0.31200
O642        O  0.81302165  0.11923226  0.97765852    -0.23100
C643        C  0.80180544  0.12541219  0.00659232    -0.03100
C644        C  0.81209218  0.11501157  0.53576211    -0.17500
H645        H  0.84797415  0.08476372  0.56774174     0.20500
H646        H  0.84794298  0.09591133  0.93935392     0.18900
H647        H  0.88950736  0.06389602  0.94481220     0.18800
H648        H  0.80659564  0.11701475  0.56228941     0.14700
C649        C  0.51853517  0.42160703  0.76808599     0.30100
C650        C  0.52968700  0.40414766  0.78904396    -0.36200
C651        C  0.54324041  0.38639548  0.77195030     0.16100
C652        C  0.54567209  0.38581855  0.73666389     0.21900
C653        C  0.53451371  0.40329809  0.71567532    -0.34300
C654        C  0.52093979  0.42106886  0.73278626     0.16000
O655        O  0.50490550  0.43973611  0.77866164    -0.26300
C656        C  0.49845220  0.45095295  0.74977338     0.05800
C657        C  0.50790815  0.44016810  0.72040338    -0.31200
O658        O  0.55925946  0.36760054  0.72619403    -0.23100
C659        C  0.56561695  0.35640828  0.75517385    -0.03100
C660        C  0.55616068  0.36729849  0.78443850    -0.17500
H661        H  0.52790255  0.40437901  0.81673134     0.20500
H662        H  0.53627324  0.40304691  0.68798525     0.18900
H663        H  0.50541962  0.44555007  0.69386781     0.18800
H664        H  0.55851190  0.36198430  0.81101817     0.14700
C665        C  0.86219360  0.88556961  0.98374075     0.30100
C666        C  0.87521551  0.90183168  0.96301042    -0.36200
C667        C  0.88722287  0.92061108  0.98031563     0.16100
C668        C  0.88647365  0.92320264  0.01557544     0.21900
C669        C  0.87340479  0.90698738  0.03628803    -0.34300
C670        C  0.86145021  0.88818440  0.01899139     0.16000
O671        O  0.84962734  0.86670862  0.97299739    -0.26300
C672        C  0.84078798  0.85707592  0.00175064     0.05800
C673        C  0.84757157  0.86967015  0.53117613    -0.31200
O674        O  0.89932370  0.94183054  0.52641017    -0.23100
C675        C  0.90839851  0.95132040  0.99771668    -0.03100
C676        C  0.90143644  0.93891961  0.96821765    -0.17500
H677        H  0.87599697  0.89992465  0.93536358     0.20500
H678        H  0.87271675  0.90882874  0.56395272     0.18900
H679        H  0.84282001  0.86587512  0.55761673     0.18800
H680        H  0.90638522  0.94267748  0.94183101     0.14700
C681        C  0.57804789  0.60237576  0.76674940     0.30100
C682        C  0.56069658  0.59063108  0.78719165    -0.36200
C683        C  0.54285176  0.57754398  0.76945834     0.16100
C684        C  0.54208056  0.57614913  0.73405633     0.21900
C685        C  0.55942614  0.58790325  0.71360924    -0.34300
C686        C  0.57731946  0.60091890  0.73135496     0.16000
O687        O  0.59629896  0.61565269  0.77791675    -0.26300
C688        C  0.60743842  0.62273657  0.74930362     0.05800
C689        C  0.59644859  0.61409047  0.71954552    -0.31200
O690        O  0.52393493  0.56272264  0.72290682    -0.23100
C691        C  0.51297491  0.55539778  0.75154675    -0.03100
C692        C  0.52392183  0.56408679  0.78129416    -0.17500
H693        H  0.56112043  0.59157720  0.81495846     0.20500
H694        H  0.55905116  0.58689240  0.68584596     0.18900
H695        H  0.60165419  0.61720360  0.69310100     0.18800
H696        H  0.51878115  0.56079575  0.80773051     0.14700
loop_ 
_geom_bond_atom_site_label_1 
_geom_bond_atom_site_label_2 
_geom_bond_distance 
_geom_bond_site_symmetry_2 
_ccdc_geom_bond_type 
N1            N2   1.322       .  A
N1            C5   1.345       .  A
N1           Cu9   2.076       .  S
N2            C3   1.346       .  A
N2           Cu8   2.076       .  S
C3            C4   1.384       .  A
C3            H6   1.082       .  S
C4            C5   1.383       .  A
C4           C38   1.472       .  S
C5            H7   1.082       .  S
Cu8          N11   2.076       .  S
Cu9          N19   2.076       .  S
Cu10         N12   2.068       .  S
Cu10         N18   2.068       .  S
N11          N12   1.322       .  A
N11          C15   1.345       .  A
N12          C13   1.345       .  A
C13          C14   1.382       .  A
C13          H16   1.082       .  S
C14          C15   1.383       .  A
C14          C28   1.470       .  S
C15          H17   1.082       .  S
N18          N19   1.322       .  A
N18          C22   1.344       .  A
N19          C20   1.345       .  A
C20          C21   1.383       .  A
C20          H23   1.082       .  S
C21          C22   1.382       .  A
C21         C340   1.470       .  S
C22          H24   1.082       .  S
N25          N26   1.322       .  A
N25          C29   1.344       .  A
N25         Cu33   2.070       .  S
N26          C27   1.346       .  A
N26        Cu380   2.075       .  S
C27          C28   1.384       .  A
C27          H30   1.082       .  S
C28          C29   1.382       .  A
C29          H31   1.082       .  S
Cu32         N35   2.075       .  S
Cu32        N374   2.075       .  S
Cu33         N43   2.070       .  S
Cu34         N36   2.077       .  S
Cu34         N42   2.076       .  S
N35          N36   1.323       .  A
N35          C39   1.345       .  A
N36          C37   1.346       .  A
C37          C38   1.384       .  A
C37          H40   1.082       .  S
C38          C39   1.383       .  A
C39          H41   1.082       .  S
N42         N391   1.322       .  A
N42          C46   1.345       .  A
N43         N390   1.322   1_554  A
N43          C44   1.345       .  A
C44         C393   1.383       .  A
C44          H47   1.082       .  S
C45          C46   1.382       .  A
C45         C392   1.383       .  A
C45         C324   1.471       .  S
C46          H48   1.082       .  S
N49          N50   1.322       .  A
N49          C53   1.344       .  A
N49         Cu57   2.070       .  S
N50          C51   1.344       .  A
N50         Cu56   2.071       .  S
C51          C52   1.383       .  A
C51          H54   1.082       .  S
C52          C53   1.382       .  A
C52          C86   1.469       .  S
C53          H55   1.082       .  S
Cu56         N59   2.071       .  S
Cu57         N67   2.070       .  S
Cu58         N60   2.072       .  S
Cu58         N66   2.072       .  S
N59          N60   1.322       .  A
N59          C63   1.345       .  A
N60          C61   1.344       .  A
C61          C62   1.382       .  A
C61          H64   1.082       .  S
C62          C63   1.383       .  A
C62          C76   1.469       .  S
C63          H65   1.082       .  S
N66          N67   1.322       .  A
N66          C70   1.345       .  A
N67          C68   1.345       .  A
C68          C69   1.382       .  A
C68          H71   1.082       .  S
C69          C70   1.384       .  A
C69         C311   1.470       .  S
C70          H72   1.082       .  S
N73          N74   1.322       .  A
N73          C77   1.344       .  A
N73         Cu81   2.070       .  S
N74          C75   1.344       .  A
N74         Cu80   2.072       .  S
C75          C76   1.383       .  A
C75          H78   1.082       .  S
C76          C77   1.382       .  A
C77          H79   1.082       .  S
Cu80        N431   2.072       .  S
Cu81         N91   2.070       .  S
Cu82         N84   2.071       .  S
Cu82         N90   2.071       .  S
N83          N84   1.322       .  A
N83          C87   1.345       .  A
N83        Cu428   2.072       .  S
N84          C85   1.344       .  A
C85          C86   1.382       .  A
C85          H88   1.082       .  S
C86          C87   1.383       .  A
C87          H89   1.082       .  S
N90         N439   1.322   1_554  A
N90          C94   1.345       .  A
N91         N438   1.322       .  A
N91          C92   1.344       .  A
C92          C93   1.381       .  A
C92          H95   1.082       .  S
C93         C442   1.383       .  A
C93         C295   1.469       .  S
C94         C441   1.384       .  A
C94          H96   1.082       .  S
N97          N98   1.322       .  A
N97         C101   1.344       .  A
N97        Cu105   2.068       .  S
N98          C99   1.344       .  A
N98        Cu104   2.071       .  S
C99         C100   1.383       .  A
C99         H102   1.082       .  S
C100        C101   1.381       .  A
C100        C134   1.468       .  S
C101        H103   1.082       .  S
Cu104       N107   2.071       .  S
Cu105       N115   2.068       .  S
Cu106       N108   2.070       .  S
Cu106       N114   2.070       .  S
N107        N108   1.322       .  A
N107        C111   1.345       .  A
N108        C109   1.344       .  A
C109        C110   1.382       .  A
C109        H112   1.082       .  S
C110        C111   1.383       .  A
C110        C124   1.469       .  S
C111        H113   1.082       .  S
N114        N115   1.322       .  A
N114        C118   1.344       .  A
N115        C116   1.344       .  A
C116        C117   1.381       .  A
C116        H119   1.082       .  S
C117        C118   1.383       .  A
C117        C279   1.469       .  S
C118        H120   1.082       .  S
N121        N122   1.322       .  A
N121        C125   1.344       .  A
N121       Cu129   2.074       .  S
N122        C123   1.344       .  A
N122       Cu476   2.069   1_554  S
C123        C124   1.382       .  A
C123        H126   1.082       .  S
C124        C125   1.382       .  A
C125        H127   1.082       .  S
Cu128       N131   2.070       .  S
Cu128       N470   2.069       .  S
Cu129       N139   2.074       .  S
Cu130       N132   2.069       .  S
Cu130       N138   2.069       .  S
N131        N132   1.323       .  A
N131        C135   1.344       .  A
N132        C133   1.344       .  A
C133        C134   1.381       .  A
C133        H136   1.082       .  S
C134        C135   1.382       .  A
C135        H137   1.082       .  S
N138        N487   1.321       .  A
N138        C142   1.345       .  A
N139        N486   1.321   1_554  A
N139        C140   1.345       .  A
C140        C489   1.383   1_554  A
C140        H143   1.082       .  S
C141        C142   1.384       .  A
C141        C488   1.383       .  A
C141        C260   1.471       .  S
C142        H144   1.082       .  S
O145       Cu153   2.008       .  S
O145        C155   1.277       .  A
O146       Cu153   2.011   1_565  S
O146        C156   1.278       .  A
O147       Cu153   2.010       .  S
O147        C157   1.278       .  A
O148       Cu153   2.011   1_565  S
O148        C158   1.277       .  A
O149       Cu154   2.011   1_565  S
O149        C506   1.278   1_554  A
O150       Cu154   2.008       .  S
O150        C505   1.277       .  A
O151       Cu154   2.005   1_565  S
O151        C504   1.277   1_554  A
O152       Cu154   2.007       .  S
O152        C503   1.277       .  A
Cu153      Cu502   2.376       .  S
Cu154      Cu501   2.376   1_554  S
C155        C247   1.467       .  S
C155        O500   1.277       .  A
C156        C327   1.468       .  S
C156        O499   1.277       .  A
C157        C292   1.468       .  S
C157        O498   1.277       .  A
C158        C263   1.470   1_655  S
C158        O497   1.278       .  A
O159       Cu167   2.008       .  S
O159        C169   1.277       .  A
O160       Cu167   2.010       .  S
O160        C170   1.278       .  A
O161       Cu167   2.008       .  S
O161        C171   1.278       .  A
O162       Cu167   2.007       .  S
O162        C172   1.277       .  A
O163       Cu168   2.010       .  S
O163        C172   1.278       .  A
O164       Cu168   2.007       .  S
O164        C171   1.277       .  A
O165       Cu168   2.007       .  S
O165        C170   1.277       .  A
O166       Cu168   2.009       .  S
O166        C169   1.278       .  A
Cu167      Cu168   2.377       .  S
C169        C228   1.468       .  S
C170        C343   1.468       .  S
C171        C276   1.467       .  S
C172        C308   1.468       .  S
N173        N174   1.322       .  A
N173        C177   1.344       .  A
N173       Cu181   2.068       .  S
N174        C175   1.345       .  A
N174       Cu528   2.073       .  S
C175        C176   1.383       .  A
C175        H178   1.082       .  S
C176        C177   1.382       .  A
C176        C210   1.469       .  S
C177        H179   1.082       .  S
Cu180       N183   2.073       .  S
Cu180       N522   2.073       .  S
Cu181       N191   2.068       .  S
Cu182       N184   2.066       .  S
Cu182       N190   2.066       .  S
N183        N184   1.322       .  A
N183        C187   1.345       .  A
N184        C185   1.344       .  A
C185        C186   1.382       .  A
C185        H188   1.082       .  S
C186        C187   1.383       .  A
C186        C200   1.469       .  S
C187        H189   1.082       .  S
N190        N539   1.322       .  A
N190        C194   1.343       .  A
N191        N538   1.322   1_554  A
N191        C192   1.345       .  A
C192        C541   1.381   1_554  A
C192        H195   1.082       .  S
C193        C194   1.382       .  A
C193        C540   1.381       .  A
C193        C244   1.467       .  S
C194        H196   1.082       .  S
N197        N198   1.322       .  A
N197        C201   1.344       .  A
N197       Cu205   2.069       .  S
N198        C199   1.345       .  A
N198       Cu204   2.071       .  S
C199        C200   1.383       .  A
C199        H202   1.082       .  S
C200        C201   1.382       .  A
C201        H203   1.082       .  S
Cu204       N207   2.072       .  S
Cu205       N215   2.069       .  S
Cu206       N208   2.070       .  S
Cu206       N214   2.070       .  S
N207        N208   1.323       .  A
N207        C211   1.345       .  A
N208        C209   1.344       .  A
C209        C210   1.382       .  A
C209        H212   1.082       .  S
C210        C211   1.382       .  A
C211        H213   1.082       .  S
N214        N215   1.322       .  A
N214        C218   1.345       .  A
N215        C216   1.344       .  A
C216        C217   1.383       .  A
C216        H219   1.082       .  S
C217        C218   1.382       .  A
C217        C231   1.469       .  S
C218        H220   1.082       .  S
C221        C226   1.381       .  A
C221        C222   1.402       .  A
C221        O227   1.318       .  A
C222        C223   1.401       .  A
C222        H233   1.082       .  S
C223        C232   1.359       .  A
C223        C224   1.380       .  A
C224        C225   1.403       .  A
C224        O230   1.319       .  A
C225        C226   1.403       .  A
C225        H234   1.082       .  S
C226        C229   1.362       .  A
O227        C228   1.330       .  A
C228        C229   1.391       .  A
C229        H235   1.082       .  S
O230        C231   1.331       .  A
C231        C232   1.390       .  A
C232        H236   1.082       .  S
C237        C242   1.380   1_554  A
C237        C238   1.403       .  A
C237        O243   1.318       .  A
C238        C239   1.402       .  A
C238        H249   1.082       .  S
C239        C248   1.361       .  A
C239        C240   1.381   1_554  A
C240        C241   1.401       .  A
C240        O594   1.317       .  A
C241        C242   1.400       .  A
C241        H598   1.082       .  S
C242        C593   1.359       .  A
O243        C592   1.330   1_554  A
C244        C245   1.390       .  A
C244        O591   1.330       .  A
C245        C590   1.359       .  A
C245        H251   1.082       .  S
O246        C247   1.330   1_455  A
O246        C588   1.317       .  A
C247        C596   1.391   1_655  A
C248        C595   1.391   1_455  A
C248        H252   1.082       .  S
H250        C589   1.082       .  S
C253        C258   1.380   1_554  A
C253        C254   1.403       .  A
C253        O259   1.318       .  A
C254        C255   1.402       .  A
C254        H265   1.082       .  S
C255        C264   1.361       .  A
C255        C256   1.380   1_554  A
C256        C257   1.404       .  A
C256        O610   1.319       .  A
C257        C258   1.403       .  A
C257        H614   1.082       .  S
C258        C609   1.362       .  A
O259        C608   1.330   1_554  A
C260        C261   1.392       .  A
C260        O607   1.330       .  A
C261        C606   1.362       .  A
C261        H267   1.082       .  S
O262        C263   1.331       .  A
O262        C604   1.319       .  A
C263        C612   1.391       .  A
C264        C611   1.391   1_554  A
C264        H268   1.082       .  S
H266        C605   1.082       .  S
C269        C274   1.381       .  A
C269        C270   1.402       .  A
C269        O275   1.317       .  A
C270        C271   1.401       .  A
C270        H281   1.082       .  S
C271        C280   1.360       .  A
C271        C272   1.380       .  A
C272        C273   1.403       .  A
C272        O278   1.318       .  A
C273        C274   1.402       .  A
C273        H282   1.082       .  S
C274        C277   1.361       .  A
O275        C276   1.330       .  A
C276        C277   1.391       .  A
C277        H283   1.082       .  S
O278        C279   1.330       .  A
C279        C280   1.391       .  A
C280        H284   1.082       .  S
C285        C290   1.380   1_554  A
C285        C286   1.403       .  A
C285        O291   1.318       .  A
C286        C287   1.402       .  A
C286        H297   1.082       .  S
C287        C296   1.361       .  A
C287        C288   1.380   1_554  A
C288        C289   1.403       .  A
C288        O642   1.318       .  A
C289        C290   1.402       .  A
C289        H646   1.082       .  S
C290        C641   1.361       .  A
O291        C640   1.331       .  A
C292        C293   1.391       .  A
C292        O639   1.331       .  A
C293        C638   1.361       .  A
C293        H299   1.082       .  S
O294        C295   1.330       .  A
O294        C636   1.318       .  A
C295        C644   1.391       .  A
C296        C643   1.391       .  A
C296        H300   1.082       .  S
H298        C637   1.082       .  S
C301        C306   1.381       .  A
C301        C302   1.402       .  A
C301        O307   1.318       .  A
C302        C303   1.401       .  A
C302        H313   1.082       .  S
C303        C312   1.360       .  A
C303        C304   1.380       .  A
C304        C305   1.404       .  A
C304        O310   1.319       .  A
C305        C306   1.403       .  A
C305        H314   1.082       .  S
C306        C309   1.362       .  A
O307        C308   1.330       .  A
C308        C309   1.391       .  A
C309        H315   1.082       .  S
O310        C311   1.331       .  A
C311        C312   1.391       .  A
C312        H316   1.082       .  S
C317        C322   1.380       .  A
C317        C318   1.403       .  A
C317        O323   1.318       .  A
C318        C319   1.402       .  A
C318        H329   1.082       .  S
C319        C328   1.362       .  A
C319        C320   1.380       .  A
C320        C321   1.403       .  A
C320        O674   1.318       .  A
C321        C322   1.402       .  A
C321        H678   1.082       .  S
C322        C673   1.361       .  A
O323        C324   1.331       .  A
C324        C673   1.391       .  A
C325        C670   1.361       .  A
C325        C672   1.391       .  A
C325        H331   1.082       .  S
O326        C668   1.318       .  A
O326        C675   1.330   1_554  A
C327        C328   1.391       .  A
C327        O674   1.330       .  A
C328        H332   1.082       .  S
H330        C669   1.082       .  S
C333        C338   1.380       .  A
C333        C334   1.403       .  A
C333        O339   1.318       .  A
C334        C335   1.402       .  A
C334        H345   1.082       .  S
C335        C344   1.361       .  A
C335        C336   1.380       .  A
C336        C337   1.403       .  A
C336        O342   1.318       .  A
C337        C338   1.402       .  A
C337        H346   1.082       .  S
C338        C341   1.360       .  A
O339        C340   1.330       .  A
C340        C341   1.391       .  A
C341        H347   1.082       .  S
O342        C343   1.330       .  A
C343        C344   1.391       .  A
C344        H348   1.082       .  S
N349        N350   1.322       .  A
N349        C353   1.345       .  A
N349       Cu357   2.076       .  S
N350        C351   1.346       .  A
N350       Cu356   2.076       .  S
C351        C352   1.384       .  A
C351        H354   1.082       .  S
C352        C353   1.383       .  A
C352        C386   1.472       .  S
C353        H355   1.082       .  S
Cu356       N359   2.076       .  S
Cu357       N367   2.076       .  S
Cu358       N360   2.068       .  S
Cu358       N366   2.068       .  S
N359        N360   1.322       .  A
N359        C363   1.345       .  A
N360        C361   1.345       .  A
C361        C362   1.382       .  A
C361        H364   1.082       .  S
C362        C363   1.383       .  A
C362        C376   1.470       .  S
C363        H365   1.082       .  S
N366        N367   1.322       .  A
N366        C370   1.344       .  A
N367        C368   1.345       .  A
C368        C369   1.383       .  A
C368        H371   1.082       .  S
C369        C370   1.382       .  A
C369        C688   1.470       .  S
C370        H372   1.082       .  S
N373        N374   1.322       .  A
N373        C377   1.344       .  A
N373       Cu381   2.070       .  S
N374        C375   1.346       .  A
C375        C376   1.384       .  A
C375        H378   1.082       .  S
C376        C377   1.382       .  A
C377        H379   1.082       .  S
Cu380       N383   2.075   1_554  S
Cu381       N391   2.070       .  S
Cu382       N384   2.077       .  S
Cu382       N390   2.076       .  S
N383        N384   1.323       .  A
N383        C387   1.345       .  A
N384        C385   1.346       .  A
C385        C386   1.384       .  A
C385        H388   1.082       .  S
C386        C387   1.383       .  A
C387        H389   1.082       .  S
N390        C394   1.345       .  A
N391        C392   1.345       .  A
C392        H395   1.082       .  S
C393        C394   1.382   1_554  A
C393        C672   1.471       .  S
C394        H396   1.082       .  S
N397        N398   1.322       .  A
N397        C401   1.344       .  A
N397       Cu405   2.070       .  S
N398        C399   1.344       .  A
N398       Cu404   2.071       .  S
C399        C400   1.383       .  A
C399        H402   1.082       .  S
C400        C401   1.382       .  A
C400        C434   1.469       .  S
C401        H403   1.082       .  S
Cu404       N407   2.071       .  S
Cu405       N415   2.070       .  S
Cu406       N408   2.072       .  S
Cu406       N414   2.072       .  S
N407        N408   1.322       .  A
N407        C411   1.345       .  A
N408        C409   1.344       .  A
C409        C410   1.382       .  A
C409        H412   1.082       .  S
C410        C411   1.383       .  A
C410        C424   1.469       .  S
C411        H413   1.082       .  S
N414        N415   1.322       .  A
N414        C418   1.345       .  A
N415        C416   1.345       .  A
C416        C417   1.382       .  A
C416        H419   1.082       .  S
C417        C418   1.384       .  A
C417        C659   1.470       .  S
C418        H420   1.082       .  S
N421        N422   1.322       .  A
N421        C425   1.344       .  A
N421       Cu429   2.070       .  S
N422        C423   1.344       .  A
N422       Cu428   2.072   1_556  S
C423        C424   1.383       .  A
C423        H426   1.082       .  S
C424        C425   1.382       .  A
C425        H427   1.082       .  S
Cu429       N439   2.070       .  S
Cu430       N432   2.071       .  S
Cu430       N438   2.071       .  S
N431        N432   1.322       .  A
N431        C435   1.345       .  A
N432        C433   1.344       .  A
C433        C434   1.382       .  A
C433        H436   1.082       .  S
C434        C435   1.383       .  A
C435        H437   1.082       .  S
N438        C442   1.345       .  A
N439        C440   1.344       .  A
C440        C441   1.381   1_556  A
C440        H443   1.082       .  S
C441        C643   1.469       .  S
C442        H444   1.082       .  S
N445        N446   1.322       .  A
N445        C449   1.344       .  A
N445       Cu453   2.068       .  S
N446        C447   1.344       .  A
N446       Cu452   2.071       .  S
C447        C448   1.383       .  A
C447        H450   1.082       .  S
C448        C449   1.381       .  A
C448        C482   1.468       .  S
C449        H451   1.082       .  S
Cu452       N455   2.071       .  S
Cu453       N463   2.068       .  S
Cu454       N456   2.070       .  S
Cu454       N462   2.070       .  S
N455        N456   1.322       .  A
N455        C459   1.345       .  A
N456        C457   1.344       .  A
C457        C458   1.382       .  A
C457        H460   1.082       .  S
C458        C459   1.383       .  A
C458        C472   1.469       .  S
C459        H461   1.082       .  S
N462        N463   1.322       .  A
N462        C466   1.344       .  A
N463        C464   1.344       .  A
C464        C465   1.381       .  A
C464        H467   1.082       .  S
C465        C466   1.383       .  A
C465        C627   1.469       .  S
C466        H468   1.082       .  S
N469        N470   1.322       .  A
N469        C473   1.344       .  A
N469       Cu477   2.074       .  S
N470        C471   1.344       .  A
C471        C472   1.382       .  A
C471        H474   1.082       .  S
C472        C473   1.382       .  A
C473        H475   1.082       .  S
Cu476       N479   2.070       .  S
Cu477       N487   2.074       .  S
Cu478       N480   2.069       .  S
Cu478       N486   2.069       .  S
N479        N480   1.323       .  A
N479        C483   1.344       .  A
N480        C481   1.344       .  A
C481        C482   1.381       .  A
C481        H484   1.082       .  S
C482        C483   1.382       .  A
C483        H485   1.082       .  S
N486        C490   1.345       .  A
N487        C488   1.345       .  A
C488        H491   1.082       .  S
C489        C490   1.384       .  A
C489        C608   1.471       .  S
C490        H492   1.082       .  S
O493       Cu501   2.008       .  S
O493        C503   1.277   1_556  A
O494       Cu501   2.011   1_565  S
O494        C504   1.278       .  A
O495       Cu501   2.010       .  S
O495        C505   1.278   1_556  A
O496       Cu501   2.011   1_565  S
O496        C506   1.277       .  A
O497       Cu502   2.011   1_565  S
O498       Cu502   2.008       .  S
O499       Cu502   2.005   1_565  S
O500       Cu502   2.007       .  S
C503        C595   1.467       .  S
C504        C675   1.468       .  S
C505        C640   1.468       .  S
C506        C611   1.470   1_655  S
O507       Cu515   2.008       .  S
O507        C517   1.277       .  A
O508       Cu515   2.010       .  S
O508        C518   1.278       .  A
O509       Cu515   2.008       .  S
O509        C519   1.278       .  A
O510       Cu515   2.007       .  S
O510        C520   1.277       .  A
O511       Cu516   2.010       .  S
O511        C520   1.278       .  A
O512       Cu516   2.007       .  S
O512        C519   1.277       .  A
O513       Cu516   2.007       .  S
O513        C518   1.277       .  A
O514       Cu516   2.009       .  S
O514        C517   1.278       .  A
Cu515      Cu516   2.377       .  S
C517        C576   1.468       .  S
C518        C691   1.468       .  S
C519        C624   1.467       .  S
C520        C656   1.468       .  S
N521        N522   1.322       .  A
N521        C525   1.344       .  A
N521       Cu529   2.068       .  S
N522        C523   1.345       .  A
C523        C524   1.383       .  A
C523        H526   1.082       .  S
C524        C525   1.382       .  A
C524        C558   1.469       .  S
C525        H527   1.082       .  S
Cu528       N531   2.073   1_554  S
Cu529       N539   2.068       .  S
Cu530       N532   2.066       .  S
Cu530       N538   2.066       .  S
N531        N532   1.322       .  A
N531        C535   1.345       .  A
N532        C533   1.344       .  A
C533        C534   1.382       .  A
C533        H536   1.082       .  S
C534        C535   1.383       .  A
C534        C548   1.469       .  S
C535        H537   1.082       .  S
N538        C542   1.343       .  A
N539        C540   1.345       .  A
C540        H543   1.082       .  S
C541        C542   1.382       .  A
C541        C592   1.467       .  S
C542        H544   1.082       .  S
N545        N546   1.322       .  A
N545        C549   1.344       .  A
N545       Cu553   2.069       .  S
N546        C547   1.345       .  A
N546       Cu552   2.071       .  S
C547        C548   1.383       .  A
C547        H550   1.082       .  S
C548        C549   1.382       .  A
C549        H551   1.082       .  S
Cu552       N555   2.072       .  S
Cu553       N563   2.069       .  S
Cu554       N556   2.070       .  S
Cu554       N562   2.070       .  S
N555        N556   1.323       .  A
N555        C559   1.345       .  A
N556        C557   1.344       .  A
C557        C558   1.382       .  A
C557        H560   1.082       .  S
C558        C559   1.382       .  A
C559        H561   1.082       .  S
N562        N563   1.322       .  A
N562        C566   1.345       .  A
N563        C564   1.344       .  A
C564        C565   1.383       .  A
C564        H567   1.082       .  S
C565        C566   1.382       .  A
C565        C579   1.469       .  S
C566        H568   1.082       .  S
C569        C574   1.381       .  A
C569        C570   1.402       .  A
C569        O575   1.318       .  A
C570        C571   1.401       .  A
C570        H581   1.082       .  S
C571        C580   1.359       .  A
C571        C572   1.380       .  A
C572        C573   1.403       .  A
C572        O578   1.319       .  A
C573        C574   1.403       .  A
C573        H582   1.082       .  S
C574        C577   1.362       .  A
O575        C576   1.330       .  A
C576        C577   1.391       .  A
C577        H583   1.082       .  S
O578        C579   1.331       .  A
C579        C580   1.390       .  A
C580        H584   1.082       .  S
C585        C590   1.380       .  A
C585        C586   1.403       .  A
C585        O591   1.318       .  A
C586        C587   1.402       .  A
C586        H597   1.082       .  S
C587        C596   1.361       .  A
C587        C588   1.381       .  A
C588        C589   1.401       .  A
C589        C590   1.400       .  A
C592        C593   1.390       .  A
C593        H599   1.082       .  S
O594        C595   1.330   1_456  A
C596        H600   1.082       .  S
C601        C606   1.380       .  A
C601        C602   1.403       .  A
C601        O607   1.318       .  A
C602        C603   1.402       .  A
C602        H613   1.082       .  S
C603        C612   1.361       .  A
C603        C604   1.380       .  A
C604        C605   1.404       .  A
C605        C606   1.403       .  A
C608        C609   1.392       .  A
C609        H615   1.082       .  S
O610        C611   1.331       .  A
C612        H616   1.082       .  S
C617        C622   1.381       .  A
C617        C618   1.402       .  A
C617        O623   1.317       .  A
C618        C619   1.401       .  A
C618        H629   1.082       .  S
C619        C628   1.360       .  A
C619        C620   1.380       .  A
C620        C621   1.403       .  A
C620        O626   1.318       .  A
C621        C622   1.402       .  A
C621        H630   1.082       .  S
C622        C625   1.361       .  A
O623        C624   1.330       .  A
C624        C625   1.391       .  A
C625        H631   1.082       .  S
O626        C627   1.330       .  A
C627        C628   1.391       .  A
C628        H632   1.082       .  S
C633        C638   1.380       .  A
C633        C634   1.403       .  A
C633        O639   1.318       .  A
C634        C635   1.402       .  A
C634        H645   1.082       .  S
C635        C644   1.361       .  A
C635        C636   1.380       .  A
C636        C637   1.403       .  A
C637        C638   1.402       .  A
C640        C641   1.391   1_554  A
C641        H647   1.082       .  S
O642        C643   1.330   1_556  A
C644        H648   1.082       .  S
C649        C654   1.381       .  A
C649        C650   1.402       .  A
C649        O655   1.318       .  A
C650        C651   1.401       .  A
C650        H661   1.082       .  S
C651        C660   1.360       .  A
C651        C652   1.380       .  A
C652        C653   1.404       .  A
C652        O658   1.319       .  A
C653        C654   1.403       .  A
C653        H662   1.082       .  S
C654        C657   1.362       .  A
O655        C656   1.330       .  A
C656        C657   1.391       .  A
C657        H663   1.082       .  S
O658        C659   1.331       .  A
C659        C660   1.391       .  A
C660        H664   1.082       .  S
C665        C670   1.380   1_556  A
C665        C666   1.403       .  A
C665        O671   1.318       .  A
C666        C667   1.402       .  A
C666        H677   1.082       .  S
C667        C676   1.362       .  A
C667        C668   1.380   1_556  A
C668        C669   1.403       .  A
C669        C670   1.402       .  A
O671        C672   1.331   1_556  A
C673        H679   1.082       .  S
C675        C676   1.391       .  A
C676        H680   1.082       .  S
C681        C686   1.380       .  A
C681        C682   1.403       .  A
C681        O687   1.318       .  A
C682        C683   1.402       .  A
C682        H693   1.082       .  S
C683        C692   1.361       .  A
C683        C684   1.380       .  A
C684        C685   1.403       .  A
C684        O690   1.318       .  A
C685        C686   1.402       .  A
C685        H694   1.082       .  S
C686        C689   1.360       .  A
O687        C688   1.330       .  A
C688        C689   1.391       .  A
C689        H695   1.082       .  S
O690        C691   1.330       .  A
C691        C692   1.391       .  A
C692        H696   1.082       .  S
