geometry optimzed in LAMMPS
_audit_creation_date              2020-11-30 
_audit_creation_method            'lammps2cif' 
_symmetry_space_group_name_H-M    'P1' 
_symmetry_Int_Tables_number       1 
_symmetry_cell_setting            triclinic 
loop_ 
_symmetry_equiv_pos_as_xyz 
  x,y,z 
_cell_length_a                    34.94154595 
_cell_length_b                    34.7115194491387 
_cell_length_c                    42.957512508982816 
_cell_angle_alpha                 90.40238722923131 
_cell_angle_beta                  89.80184554868664 
_cell_angle_gamma                 121.62122162701762 
loop_ 
_atom_site_label 
_atom_site_type_symbol 
_atom_site_fract_x 
_atom_site_fract_y 
_atom_site_fract_z 
_atom_site_charge 
C1          C  0.46067171  0.09186212  0.31896838     0.41800
N2          N  0.49421987  0.08274675  0.27973657     0.00700
C3          C  0.40721178  0.89158014  0.18611189    -0.07200
H4          H  0.40675920  0.86233470  0.30593504     0.06200
C5          C  0.57475663  0.96212035  0.30740556    -0.07600
Co6        Co  0.43106129  0.99845837  0.24413053     0.74200
N7          N  0.42223732  0.91960338  0.27786447    -0.26700
Co8        Co  0.46849560  0.92381336  0.24565880     0.74100
C9          C  0.54093839  0.92089475  0.32274434     0.41900
N10         N  0.59847581  0.06403665  0.28157721     0.00300
N11         N  0.51231790  0.93004068  0.28138662     0.00400
N12         N  0.38360675  0.94095211  0.18652664    -0.47600
H13         H  0.39360726  0.02676164  0.30520792     0.06100
N14         N  0.40757227  0.94769970  0.27755865     0.00700
N15         N  0.51504679  0.92942351  0.21309875     0.00400
C16         C  0.54705004  0.91750794  0.17482622     0.42000
N17         N  0.58465685  0.09280320  0.28111033    -0.26200
C18         C  0.43416744  0.05423293  0.18716818    -0.07100
N19         N  0.50053419  0.10984106  0.30368903    -0.47300
N20         N  0.50767107  0.90078211  0.19006247    -0.47500
C21         C  0.46792065  0.09595564  0.17224507     0.41800
N22         N  0.41155569  0.94889583  0.20979313     0.00700
N23         N  0.58761017  0.09270423  0.21321063    -0.26200
N24         N  0.45255112  0.04795423  0.27837704    -0.26700
N25         N  0.60107889  0.06361555  0.21422193     0.00300
H26         H  0.60544175  0.14943219  0.18319174     0.06200
H27         H  0.61503260  0.98257165  0.18579586     0.06200
N28         N  0.42573433  0.92038949  0.21024230    -0.26800
N29         N  0.55399524  0.96497801  0.28213577    -0.26400
N30         N  0.49779960  0.08357676  0.21120782     0.00700
C31         C  0.36993273  0.90069375  0.31378215     0.42100
C32         C  0.60351262  0.12169890  0.30504196    -0.07600
N33         N  0.55689517  0.96386699  0.21405658    -0.26400
H34         H  0.60931152  0.98565828  0.31394645     0.06200
N35         N  0.37630990  0.93779630  0.29892463    -0.47600
H36         H  0.59912259  0.14971905  0.30995151     0.06200
C37         C  0.63828937  0.10692740  0.17619962     0.41900
C38         C  0.42882405  0.05086114  0.30172363    -0.07100
Co39       Co  0.54159670  0.08933315  0.24630660     0.73800
N40         N  0.62603235  0.07135322  0.30492310    -0.47300
C41         C  0.37883560  0.90515997  0.17031958     0.42200
N42         N  0.50659896  0.11261576  0.18837442    -0.47300
Co43       Co  0.57839240  0.01414926  0.24797336     0.73900
C44         C  0.57986049  0.95931840  0.19081306    -0.07600
C45         C  0.40090959  0.88907030  0.30023048    -0.07200
N46         N  0.45579358  0.04914918  0.21086405    -0.26700
N47         N  0.50323945  0.90234050  0.30513711    -0.47500
H48         H  0.41303280  0.86461586  0.18086695     0.06500
C49         C  0.60908584  0.12144781  0.18960096    -0.07600
Cl50       Cl  0.50487218  0.00647632  0.24600100    -0.50600
C51         C  0.63059572  0.10691144  0.32105782     0.41900
H52         H  0.39912429  0.03168780  0.18130195     0.06100
N53         N  0.63105163  0.07085804  0.19263916    -0.47300
C54         C  0.08056701  0.62206584  0.32749618     0.41800
N55         N  0.07374730  0.58423511  0.28596909     0.00700
C56         C  0.88907924  0.47775768  0.18887497    -0.07200
H57         H  0.85349947  0.43649674  0.30761260     0.06200
C58         C  0.95810735  0.37971075  0.30713801    -0.07600
Co59       Co  0.99093057  0.56128894  0.25072859     0.74200
N60         N  0.91149019  0.48373553  0.28103881    -0.26700
Co61       Co  0.91847071  0.44538003  0.24684901     0.74100
C62         C  0.91976460  0.37421244  0.32453872     0.41900
N63         N  0.05718456  0.46106986  0.28231158     0.00300
N64         N  0.92452585  0.40658763  0.28108586     0.00400
N65         N  0.93720009  0.55323172  0.19295041    -0.47600
H66         H  0.01605242  0.62203340  0.31700517     0.06100
N67         N  0.93951100  0.52781461  0.28299030     0.00700
N68         N  0.92714462  0.40806361  0.21228875     0.00400
C69         C  0.92196974  0.37082872  0.17109140     0.42000
N70         N  0.08533767  0.50522252  0.28357538    -0.26200
C71         C  0.04709977  0.62366482  0.19707826    -0.07100
N72         N  0.09954631  0.60321579  0.31077452    -0.47300
N73         N  0.90174409  0.38875816  0.18734391    -0.47500
C74         C  0.09016701  0.63800343  0.18234488     0.41800
N75         N  0.94365205  0.53150556  0.21538333     0.00700
N76         N  0.08846257  0.50841964  0.21514373    -0.26200
N77         N  0.03876441  0.58917859  0.28574403    -0.26700
N78         N  0.06049732  0.46414826  0.21484206     0.00300
H79         H  0.14423075  0.55313445  0.18556357     0.06200
H80         H  0.98643515  0.37152580  0.18228121     0.06200
N81         N  0.91601738  0.48733971  0.21359170    -0.26800
N82         N  0.95913766  0.40111925  0.28104054    -0.26400
N83         N  0.07713539  0.58905151  0.21779067     0.00700
C84         C  0.89254968  0.51259728  0.32004075     0.42100
C85         C  0.11234891  0.51468682  0.30822850    -0.07600
N86         N  0.96228342  0.40352271  0.21302254    -0.26400
H87         H  0.98330804  0.37256038  0.31438904     0.06200
N88         N  0.92956728  0.54645577  0.30611726    -0.47600
H89         H  0.13865418  0.54811063  0.31550296     0.06200
C90         C  0.10392298  0.47576984  0.17564586     0.41900
C91         C  0.04048567  0.61311544  0.31083804    -0.07100
Co92       Co  0.08260598  0.54766162  0.25050705     0.73800
N93         N  0.06340553  0.43912594  0.30477009    -0.47300
C94         C  0.90335781  0.52195751  0.17497787     0.42200
N95         N  0.10691170  0.61510149  0.19644916    -0.47300
Co96       Co  0.00970536  0.43152848  0.24775320     0.73900
C97         C  0.96178242  0.38031491  0.18800367    -0.07600
C98         C  0.88053162  0.47086927  0.30346806    -0.07200
N99         N  0.04207473  0.59375266  0.21853268    -0.26700
N100        N  0.90046612  0.39157861  0.30697096    -0.47500
H101        H  0.86302343  0.44394843  0.18238764     0.06200
C102        C  0.11738643  0.51923189  0.19115033    -0.07600
Cl103      Cl  0.00052252  0.49657409  0.24887370    -0.50600
C104        C  0.09742693  0.47063129  0.32212939     0.41900
H105        H  0.02383994  0.63480190  0.19330804     0.06100
N106        N  0.06861110  0.44377698  0.19198066    -0.47300
C107        C  0.37770385  0.44886544  0.33177772     0.41800
N108        N  0.41850806  0.48194127  0.29149117     0.00700
C109        C  0.51507077  0.39798348  0.19228769    -0.07200
H110        H  0.55599880  0.40624774  0.31251668     0.06200
C111        C  0.63097614  0.57177213  0.30884579    -0.07600
Co112      Co  0.43667208  0.42005536  0.25430790     0.74200
N113        N  0.51111235  0.41600217  0.28465502    -0.26700
Co114      Co  0.55147503  0.46186115  0.25088344     0.74100
C115        C  0.64271618  0.54066491  0.32159428     0.41900
N116        N  0.54489054  0.58838795  0.29147301     0.00300
N117        N  0.59444794  0.50718583  0.28506498     0.00400
N118        N  0.44090248  0.37193618  0.19591640    -0.47600
H119        H  0.37276748  0.38178923  0.31946342     0.06100
N120        N  0.46760211  0.40005254  0.28598704     0.00700
N121        N  0.59063151  0.50981715  0.21739772     0.00400
C122        C  0.63399694  0.54630065  0.17950344     0.42000
N123        N  0.50158195  0.57361789  0.29198984    -0.26200
C124        C  0.37687549  0.41790734  0.20062399    -0.07100
N125        N  0.39971844  0.48854417  0.31622468    -0.47300
N126        N  0.61191556  0.50534024  0.19334161    -0.47500
C127        C  0.36590845  0.44928585  0.18689812     0.41800
N128        N  0.46387543  0.40121066  0.21844306     0.00700
N129        N  0.50058543  0.57808691  0.22351798    -0.26200
N130        N  0.41057632  0.44034766  0.29013654    -0.26700
N131        N  0.54390678  0.59288766  0.22389068     0.00300
H132        H  0.46181798  0.59696290  0.19524400     0.06200
H133        H  0.63764452  0.61200185  0.19353493     0.06200
N134        N  0.50735666  0.41696069  0.21696756    -0.26800
N135        N  0.60115003  0.54821549  0.28654775    -0.26400
N136        N  0.41538140  0.48357396  0.22307393     0.00700
C137        C  0.47981172  0.36796353  0.32375553     0.42100
C138        C  0.49310900  0.59064672  0.31736200    -0.07600
N139        N  0.59800444  0.55108226  0.21986568    -0.26400
H140        H  0.64391278  0.60686813  0.31465620     0.06200
N141        N  0.44763565  0.37128526  0.30904504    -0.47600
H142        H  0.46039565  0.58395207  0.32420563     0.06200
C143        C  0.53871660  0.63185888  0.18721526     0.41900
C144        C  0.38461375  0.41677081  0.31437400    -0.07100
Co145      Co  0.45821512  0.52984873  0.25731929     0.73800
N146        N  0.56714733  0.61505032  0.31535607    -0.47300
C147        C  0.47061871  0.36784497  0.17820714     0.42200
N148        N  0.39102151  0.48935691  0.20210939    -0.47300
Co149      Co  0.57228979  0.57060839  0.25556213     0.73900
C150        C  0.62494544  0.57646760  0.19694912    -0.07600
C151        C  0.52223236  0.39812049  0.30775910    -0.07200
N152        N  0.40739066  0.44193053  0.22264034    -0.26700
N153        N  0.61868495  0.50098964  0.30591803    -0.47500
H154        H  0.54777933  0.40449205  0.18571073     0.06200
C155        C  0.49379665  0.60085172  0.20090959    -0.07600
Cl156      Cl  0.50457603  0.49556802  0.25442100    -0.50600
C157        C  0.53678185  0.61822182  0.33276217     0.41900
H158        H  0.36345394  0.38252837  0.19554559     0.06100
N159        N  0.56730911  0.62438069  0.20296410    -0.47300
O160        O  0.77724985  0.49034469  0.50605964    -0.80800
O161        O  0.78534706  0.61578915  0.07093598    -0.80800
O162        O  0.81474594  0.54993133  0.05080635    -0.80800
O163        O  0.69404810  0.51989449  0.01876733    -0.80800
O164        O  0.86243710  0.61998148  0.06013716    -0.80900
O165        O  0.71125299  0.49415156  0.47780557    -0.80800
O166        O  0.72481503  0.60200890  0.04553817    -0.80800
O167        O  0.84975525  0.51946409  0.50437189    -0.80900
C168        C  0.81089483  0.48490990  0.50847258     1.08900
C169        C  0.74467168  0.60406119  0.07045771     1.08800
C170        C  0.84461094  0.57927816  0.06808748     1.08900
C171        C  0.68533024  0.48838684  0.50037077     1.08800
O172        O  0.77474388  0.57404724  0.44140832    -0.80800
O173        O  0.87734115  0.67134243  0.00487064    -0.80900
O174        O  0.84068640  0.56360564  0.45569032    -0.80800
O175        O  0.75829293  0.64263340  0.98553156    -0.80800
O176        O  0.80208473  0.68103252  0.02437038    -0.80900
O177        O  0.78003359  0.49919002  0.44399800    -0.80800
O178        O  0.71061657  0.55996572  0.45869031    -0.80800
O179        O  0.88860395  0.61399106  0.50517997    -0.80900
Co180      Co  0.77762390  0.53679816  0.47570351     1.51500
Co181      Co  0.82900261  0.64324060  0.03671120     1.51700
Co182      Co  0.82628708  0.55893347  0.50316680     1.51600
Co183      Co  0.72703036  0.58179709  0.00267712     1.51500
O184        O  0.78852579  0.58754049  0.00715345    -1.42800
C185        C  0.73697167  0.56870231  0.43631035     1.08800
C186        C  0.90289256  0.65549951  0.00224158     1.08900
C187        C  0.81951035  0.52992654  0.43661151     1.08800
C188        C  0.77329645  0.67543089  0.00394628     1.08800
O189        O  0.71761391  0.21428920  0.50155934    -0.80800
O190        O  0.84122648  0.22818591  0.06025858    -0.80800
O191        O  0.73591549  0.17926367  0.04104978    -0.80800
O192        O  0.81288307  0.29656251  0.01135059    -0.80800
O193        O  0.76817804  0.14444970  0.05714391    -0.80900
O194        O  0.77352849  0.29201230  0.47210144    -0.80800
O195        O  0.88383731  0.28703561  0.03074006    -0.80800
O196        O  0.67768515  0.13929784  0.49423999    -0.80900
C197        C  0.67903422  0.17627203  0.49838520     1.08900
C198        C  0.86930280  0.26982091  0.05708958     1.08800
C199        C  0.74235377  0.15894092  0.06240955     1.08900
C200        C  0.79300626  0.31190415  0.49722825     1.08800
O201        O  0.83274292  0.27231047  0.44791142    -0.80800
O202        O  0.80320928  0.12158191  0.00553388    -0.80900
O203        O  0.74020303  0.14861570  0.45248622    -0.80800
O204        O  0.88653333  0.24802869  0.97428843    -0.80800
O205        O  0.88720767  0.20769021  0.01356789    -0.80900
O206        O  0.74630990  0.21234535  0.44185968    -0.80800
O207        O  0.88763327  0.32671634  0.47586290    -0.80800
O208        O  0.73337281  0.10396589  0.50488789    -0.80900
Co209      Co  0.78056441  0.24232171  0.47963539     1.51500
Co210      Co  0.82405061  0.17731201  0.03137870     1.51700
Co211      Co  0.73998631  0.16387887  0.49712100     1.51600
Co212      Co  0.84758181  0.26824217  0.99225467     1.51500
O213        O  0.80146314  0.20235941  0.99732882    -1.42800
C214        C  0.86965134  0.31099279  0.44949847     1.08800
C215        C  0.76111657  0.09333602  0.00187905     1.08900
C216        C  0.73459220  0.17292589  0.43373505     1.08800
C217        C  0.90724959  0.23519724  0.99127784     1.08800
O218        O  0.28966024  0.77909190  0.48782663    -0.80800
O219        O  0.14855768  0.77449589  0.06102280    -0.80800
O220        O  0.26826086  0.80978848  0.04243719    -0.80800
O221        O  0.20618800  0.69922099  0.01347270    -0.80800
O222        O  0.23411659  0.84623783  0.05480590    -0.80900
O223        O  0.21493649  0.70481561  0.46564918    -0.80800
O224        O  0.17985753  0.73474470  0.05692619    -0.80800
O225        O  0.33005932  0.85239991  0.49454622    -0.80900
C226        C  0.32834265  0.81532320  0.49249589     1.08900
C227        C  0.15983706  0.74870181  0.07319662     1.08800
C228        C  0.26193942  0.83411716  0.06145204     1.08900
C229        C  0.21197241  0.68533538  0.49097542     1.08800
O230        O  0.17693943  0.75422217  0.44269596    -0.80800
O231        O  0.21052384  0.86791343  0.99467242    -0.80900
O232        O  0.26829752  0.83721364  0.44992254    -0.80800
O233        O  0.10484749  0.72093319  0.01728709    -0.80800
O234        O  0.12471195  0.78901093  0.00008478    -0.80900
O235        O  0.26212104  0.77614722  0.42878671    -0.80800
O236        O  0.13842663  0.69214971  0.47076397    -0.80800
O237        O  0.27631508  0.88244485  0.50585086    -0.80900
Co238      Co  0.23149381  0.76974393  0.46607129     1.51500
Co239      Co  0.18072330  0.81765411  0.02528239     1.51700
Co240      Co  0.26660075  0.82221579  0.49776597     1.51600
Co241      Co  0.15943721  0.71572657  0.01435278     1.51500
O242        O  0.20072974  0.78053187  0.99982397    -1.42800
C243        C  0.14519118  0.71343640  0.44521966     1.08800
C244        C  0.25237580  0.89545673  0.99757790     1.08900
C245        C  0.27311651  0.81692826  0.42603557     1.08800
C246        C  0.09503575  0.74750405  0.00418171     1.08800
O247        O  0.53427559  0.86007969  0.49944603    -0.80800
O248        O  0.55425307  0.73585870  0.05970896    -0.80800
O249        O  0.49707870  0.71490542  0.46296851    -0.80800
O250        O  0.62358838  0.85132268  0.06026014    -0.80800
O251        O  0.49632760  0.70595215  0.01331946    -0.80900
O252        O  0.55236615  0.81743981  0.04744669    -0.80800
O253        O  0.62608596  0.77440619  0.06813407    -0.80800
O254        O  0.49879444  0.78692084  0.49008215    -0.80900
C255        C  0.49757226  0.82280717  0.49603073     1.08900
C256        C  0.58623810  0.74733327  0.07796825     1.08800
C257        C  0.47489959  0.69384359  0.48645111     1.08900
C258        C  0.58370615  0.84051705  0.06676630     1.08800
O259        O  0.62192474  0.88869065  0.50931061    -0.80800
O260        O  0.55926622  0.70000635  0.47012003    -0.80900
O261        O  0.52469110  0.78715098  0.43114378    -0.80800
O262        O  0.67194416  0.79084515  0.00852670    -0.80800
O263        O  0.61794637  0.72321489  0.02331705    -0.80900
O264        O  0.58001628  0.84731212  0.45387663    -0.80800
O265        O  0.67260962  0.87179055  0.00266784    -0.80800
O266        O  0.58688661  0.76453198  0.44437217    -0.80900
Co267      Co  0.56593068  0.82939664  0.50164412     1.51500
Co268      Co  0.55981329  0.72084323  0.01674186     1.51700
Co269      Co  0.54776354  0.77868035  0.46801026     1.51600
Co270      Co  0.64543060  0.82033377  0.03238429     1.51500
O271        O  0.58891316  0.78747382  0.00439000    -1.42800
C272        C  0.66102497  0.90085731  0.00351792     1.08800
C273        C  0.57571577  0.72344025  0.44533114     1.08900
C274        C  0.55397256  0.82857046  0.42985598     1.08800
C275        C  0.65783166  0.74956242  0.01361127     1.08800
O276        O  0.15871465  0.42233416  0.45406835    -0.80800
O277        O  0.27581849  0.37770153  0.02430349    -0.80800
O278        O  0.24169295  0.40558602  0.44726443    -0.80800
O279        O  0.12892662  0.33155089  0.00041693    -0.80800
O280        O  0.30514895  0.43941480  0.47361711    -0.80900
O281        O  0.11732092  0.38738283  0.51175549    -0.80800
O282        O  0.20674943  0.32644529  0.00859432    -0.80800
O283        O  0.22104207  0.46607190  0.42745520    -0.80900
C284        C  0.17876599  0.44240225  0.42817103     1.08900
C285        C  0.24771288  0.33885772  0.01289501     1.08800
C286        C  0.28321582  0.41980750  0.44880333     1.08900
C287        C  0.10218231  0.34595577  0.00041957     1.08800
O288        O  0.18780402  0.45464720  0.04453115    -0.80800
O289        O  0.29582033  0.50032380  0.01545978    -0.80900
O290        O  0.22060495  0.50213004  0.48214197    -0.80800
O291        O  0.22261191  0.37091222  0.06821359    -0.80800
O292        O  0.26573279  0.44331290  0.06144498    -0.80900
O293        O  0.15077134  0.47450021  0.49807632    -0.80800
O294        O  0.15167928  0.38315215  0.05917058    -0.80800
O295        O  0.29080372  0.49994889  0.46368533    -0.80900
Co296      Co  0.17800263  0.43980939  0.50183965     1.51500
Co297      Co  0.28243275  0.43849104  0.01897686     1.51700
Co298      Co  0.22709667  0.44808950  0.46636416     1.51600
Co299      Co  0.17937679  0.35607464  0.03169694     1.51500
O300        O  0.21859559  0.41388708  0.00604556    -1.42800
C301        C  0.16460978  0.42458678  0.06454820     1.08800
C302        C  0.30966399  0.52362886  0.48753175     1.08900
C303        C  0.18813848  0.50789032  0.48965952     1.08800
C304        C  0.25150887  0.40988626  0.07889990     1.08800
O305        O  0.47522467  0.14276735  0.50004677    -0.80800
O306        O  0.44459035  0.26098080  0.04753291    -0.80800
O307        O  0.51225697  0.29365051  0.50486642    -0.80800
O308        O  0.38043951  0.14592082  0.06052615    -0.80800
O309        O  0.47095331  0.32562147  0.00387287    -0.80900
O310        O  0.45009048  0.18162073  0.04348029    -0.80800
O311        O  0.37469124  0.22178973  0.06239444    -0.80800
O312        O  0.51751441  0.21689022  0.49882001    -0.80900
C313        C  0.51422461  0.17843788  0.49933641     1.08900
C314        C  0.41508054  0.25217126  0.06791785     1.08800
C315        C  0.51014953  0.32940050  0.50523951     1.08900
C316        C  0.42199807  0.16141768  0.06507208     1.08800
O317        O  0.38199173  0.10476597  0.51185297    -0.80800
O318        O  0.41934740  0.26655257  0.45826782    -0.80900
O319        O  0.47712016  0.20707080  0.44550928    -0.80800
O320        O  0.31990986  0.19448845  0.00878777    -0.80800
O321        O  0.37675093  0.26591298  0.01265089    -0.80900
O322        O  0.41739165  0.14398267  0.45657764    -0.80800
O323        O  0.32332402  0.11293410  0.00642148    -0.80800
O324        O  0.48136102  0.26938634  0.44900780    -0.80900
Co325      Co  0.43377206  0.16458921  0.50060396     1.51500
Co326      Co  0.42996488  0.26124800  0.00293243     1.51700
Co327      Co  0.47175349  0.23260792  0.48557810     1.51600
Co328      Co  0.35211174  0.16980278  0.03228599     1.51500
O329        O  0.40212538  0.19694816  0.99942495    -1.42800
C330        C  0.34018281  0.08807193  0.00510110     1.08800
C331        C  0.45078463  0.27515576  0.43964508     1.08900
C332        C  0.44712809  0.16804833  0.43682987     1.08800
C333        C  0.33503525  0.23700336  0.00858827     1.08800
C334        C  0.32504850  0.29789201  0.98959002    -0.27000
C335        C  0.30558365  0.25583587  0.00439285    -0.15100
C336        C  0.26299955  0.23823688  0.01875600     0.35600
C337        C  0.24234226  0.26401673  0.01908589    -0.26400
C338        C  0.26409490  0.30776321  0.00631982    -0.15700
C339        C  0.30546520  0.32408908  0.99097940     0.36600
N340        N  0.32882976  0.36819127  0.97751516    -0.89900
H341        H  0.35743124  0.31202126  0.97824001     0.17800
H342        H  0.21082125  0.25120496  0.03135494     0.17800
N343        N  0.24148889  0.19605468  0.03492392    -0.89000
H344        H  0.33443127  0.36469435  0.95400434     0.35100
H345        H  0.36011676  0.38716896  0.98839561     0.40200
H346        H  0.26317092  0.19781930  0.05234032     0.39800
H347        H  0.23592868  0.17058670  0.01911408     0.34700
C348        C  0.37264768  0.58542246  0.45791175    -0.27000
C349        C  0.34674727  0.57103640  0.48513369    -0.15100
C350        C  0.36553896  0.59247752  0.01661303     0.35600
C351        C  0.40603948  0.63379820  0.01556604    -0.26400
C352        C  0.42865379  0.65458830  0.48402021    -0.15700
C353        C  0.41345316  0.62696247  0.45713761     0.36600
N354        N  0.44024494  0.63968902  0.42952927    -0.89900
H355        H  0.36260636  0.56336125  0.43769957     0.17800
H356        H  0.41982928  0.65286608  0.03696661     0.17800
N357        N  0.34273850  0.57680472  0.04582120    -0.89000
H358        H  0.42111332  0.64086239  0.41132391     0.35100
H359        H  0.44722460  0.61451850  0.42434654     0.40200
H360        H  0.33574439  0.60078143  0.05428095     0.39800
H361        H  0.36449219  0.57488671  0.06151603     0.34700
C362        C  0.24671872  0.96425377  0.99623303    -0.27000
C363        C  0.27315378  0.94467832  0.99343564    -0.15100
C364        C  0.32033283  0.97341716  0.98990478     0.35600
C365        C  0.33935387  0.01972363  0.98963249    -0.26400
C366        C  0.31408442  0.03953836  0.99638383    -0.15700
C367        C  0.26687096  0.01166220  0.99838511     0.36600
N368        N  0.23989424  0.03103824  0.00412877    -0.89900
H369        H  0.21063993  0.94258326  0.99885347     0.17800
H370        H  0.37402802  0.04147746  0.48214749     0.17800
N371        N  0.34898739  0.95808647  0.48381620    -0.89000
H372        H  0.20603905  0.00567340  0.00601410     0.35100
H373        H  0.24253625  0.05006554  0.98453069     0.40200
H374        H  0.34078945  0.93260521  0.97172303     0.39800
H375        H  0.35151127  0.94446010  0.01052719     0.34700
C376        C  0.22201999  0.62648727  0.46583696    -0.27000
C377        C  0.20860473  0.64099684  0.49202275    -0.15100
C378        C  0.18894705  0.61113946  0.51767782     0.35600
C379        C  0.18237039  0.56792459  0.51613340    -0.26400
C380        C  0.19553804  0.55361810  0.48994995    -0.15700
C381        C  0.21575227  0.58306551  0.46456819     0.36600
N382        N  0.22857739  0.56826696  0.43728932    -0.89900
H383        H  0.23680572  0.64881497  0.44608018     0.17800
H384        H  0.16696811  0.54531623  0.53570229     0.17800
N385        N  0.17406774  0.62282060  0.54532285    -0.89000
H386        H  0.24307086  0.59400292  0.42075360     0.35100
H387        H  0.19918169  0.54173429  0.42722886     0.40200
H388        H  0.13870077  0.62073114  0.03036063     0.39800
H389        H  0.18512301  0.63980660  0.05327081     0.34700
C390        C  0.41378881  0.77638291  0.98439026    -0.27000
C391        C  0.45376900  0.81981184  0.49886432    -0.15100
C392        C  0.45047636  0.85679753  0.50900875     0.35600
C393        C  0.40886585  0.85376283  0.50731656    -0.26400
C394        C  0.37002478  0.81432195  0.49645052    -0.15700
C395        C  0.37234028  0.77284458  0.98290456     0.36600
N396        N  0.33686247  0.73473026  0.96659440    -0.89900
H397        H  0.41722318  0.75034604  0.97306604     0.17800
H398        H  0.40697105  0.88274964  0.51436868     0.17800
N399        N  0.48922581  0.89742099  0.52076298    -0.89000
H400        H  0.32612617  0.74614615  0.94823324     0.35100
H401        H  0.31022633  0.71594314  0.98212717     0.40200
H402        H  0.49870545  0.88915277  0.54155102     0.39800
H403        H  0.48117038  0.92165737  0.52649686     0.34700
C404        C  0.68100862  0.97119777  0.47709254    -0.27000
C405        C  0.69344904  0.94912360  0.99745575    -0.15100
C406        C  0.73453737  0.97370104  0.01373861     0.35600
C407        C  0.75919827  0.02146066  0.01256816    -0.26400
C408        C  0.74288122  0.04459163  0.99585544    -0.15700
C409        C  0.70545628  0.01862834  0.47629833     0.36600
N410        N  0.68991386  0.04185587  0.45750796    -0.89900
H411        H  0.64978744  0.95247574  0.46422704     0.17800
H412        H  0.78915910  0.04057887  0.02667115     0.17800
N413        N  0.74944107  0.95033612  0.03296877    -0.89000
H414        H  0.66050603  0.01890787  0.44574483     0.35100
H415        H  0.71438391  0.05963626  0.44042863     0.40200
H416        H  0.72619342  0.93481347  0.05093830     0.39800
H417        H  0.78018648  0.97339330  0.04353145     0.34700
C418        C  0.03078394  0.26868043  0.99776767    -0.27000
C419        C  0.05289653  0.31589444  0.99372449    -0.15100
C420        C  0.02648189  0.33461539  0.98633285     0.35600
C421        C  0.97980354  0.30657502  0.98325137    -0.26400
C422        C  0.95734304  0.25986764  0.98870301    -0.15700
C423        C  0.98323752  0.24063260  0.99593647     0.36600
N424        N  0.96124405  0.19302564  0.00197050    -0.89900
H425        H  0.05037795  0.25388145  0.00386004     0.17800
H426        H  0.96070618  0.32233548  0.97844986     0.17800
N427        N  0.04558130  0.38337248  0.49039887    -0.89000
H428        H  0.98489491  0.18421168  0.00714804     0.35100
H429        H  0.94521294  0.17590896  0.98142446     0.40200
H430        H  0.03091461  0.39145132  0.50853500     0.39800
H431        H  0.03666606  0.39207898  0.46960235     0.34700
C432        C  0.63410588  0.20893151  0.48287806    -0.27000
C433        C  0.63661764  0.17605605  0.49978029    -0.15100
C434        C  0.59533083  0.13965928  0.01158961     0.35600
C435        C  0.55536558  0.14039505  0.01094198    -0.26400
C436        C  0.55609831  0.17716425  0.49875789    -0.15700
C437        C  0.59466774  0.21015056  0.48234993     0.36600
N438        N  0.59386368  0.24445225  0.46448685    -0.89900
H439        H  0.66268958  0.23317432  0.46920190     0.17800
H440        H  0.52572458  0.11428809  0.02283308     0.17800
N441        N  0.59640856  0.10423079  0.02789190    -0.89000
H442        H  0.60316786  0.24242258  0.44164079     0.35100
H443        H  0.61836695  0.27597603  0.47347072     0.40200
H444        H  0.59875544  0.08346680  0.01121562     0.39800
H445        H  0.56611679  0.08367459  0.03958361     0.34700
C446        C  0.97371349  0.66349603  0.98383798    -0.27000
C447        C  0.95190908  0.68490091  0.99554406    -0.15100
C448        C  0.97867797  0.73084932  0.00512639     0.35600
C449        C  0.02591788  0.75254018  0.00511107    -0.26400
C450        C  0.04707318  0.72907716  0.99636681    -0.15700
C451        C  0.02049585  0.68473814  0.98446053     0.36600
N452        N  0.04075657  0.66030697  0.97389389    -0.89900
H453        H  0.95420240  0.62866888  0.97589427     0.17800
H454        H  0.04608760  0.78684643  0.50998147     0.17800
N455        N  0.95940745  0.75620524  0.51103231    -0.89000
H456        H  0.02790376  0.63091139  0.98718100     0.35100
H457        H  0.03110577  0.65060743  0.95076721     0.40200
H458        H  0.93971587  0.74031291  0.53070550     0.39800
H459        H  0.93891910  0.75606318  0.49336421     0.34700
C460        C  0.73541672  0.76141081  0.00810398    -0.27000
C461        C  0.68841660  0.73167053  0.01054719    -0.15100
C462        C  0.67124182  0.68464734  0.01154574     0.35600
C463        C  0.70037668  0.66868616  0.00902025    -0.26400
C464        C  0.74710395  0.69795960  0.00657009    -0.15700
C465        C  0.76504351  0.74520720  0.00643399     0.36600
N466        N  0.81246656  0.77751068  0.00425186    -0.89900
H467        H  0.74942124  0.79760566  0.00787788     0.17800
H468        H  0.68592092  0.63239514  0.00939484     0.17800
N469        N  0.62413985  0.65245148  0.01543621    -0.89000
H470        H  0.81673418  0.79536234  0.48351001     0.35100
H471        H  0.82925879  0.76112183  0.50201328     0.40200
H472        H  0.61986185  0.63467519  0.03600332     0.39800
H473        H  0.61321480  0.62919184  0.99703789     0.34700
C474        C  0.83296684  0.38960104  0.51999035    -0.27000
C475        C  0.79327699  0.35304177  0.50739270    -0.15100
C476        C  0.75602692  0.35899176  0.00094099     0.35600
C477        C  0.76136723  0.40136457  0.00580443    -0.26400
C478        C  0.80371121  0.43930460  0.51372454    -0.15700
C479        C  0.83866618  0.43282567  0.52309909     0.36600
N480        N  0.88015867  0.47027705  0.53480768    -0.89900
H481        H  0.86070237  0.38522663  0.52548655     0.17800
H482        H  0.73371655  0.40565798  0.99990746     0.17800
N483        N  0.71330885  0.32301928  0.99008278    -0.89000
H484        H  0.90246042  0.45985690  0.54046895     0.35100
H485        H  0.87292768  0.48099737  0.55557935     0.40200
H486        H  0.70208173  0.29555335  0.00524440     0.39800
H487        H  0.71691412  0.31355240  0.96778098     0.34700
C488        C  0.58154114  0.37505133  0.97920301    -0.27000
C489        C  0.55283275  0.37188174  0.50407517    -0.15100
C490        C  0.56622100  0.40593317  0.52654429     0.35600
C491        C  0.61042234  0.44324485  0.52560335    -0.26400
C492        C  0.64093392  0.44647228  0.50259029    -0.15700
C493        C  0.62562637  0.41183591  0.97848527     0.36600
N494        N  0.65566399  0.41424861  0.95448908    -0.89900
H495        H  0.57068611  0.34849575  0.96180511     0.17800
H496        H  0.62085197  0.46997889  0.54273749     0.17800
N497        N  0.53571407  0.40154788  0.55075289    -0.89000
H498        H  0.63896704  0.38724693  0.93875289     0.35100
H499        H  0.68026517  0.41041196  0.96514763     0.40200
H500        H  0.50939473  0.40278817  0.54031239     0.39800
H501        H  0.55145030  0.42905708  0.56609936     0.34700
C502        C  0.47252368  0.30081333  0.10750276    -0.27000
C503        C  0.42775848  0.27924502  0.09726236    -0.15100
C504        C  0.39732665  0.28688082  0.11412754     0.35600
C505        C  0.41232433  0.31545619  0.14026301    -0.26400
C506        C  0.45726654  0.33739460  0.15038397    -0.15700
C507        C  0.48748967  0.32956921  0.13368503     0.36600
N508        N  0.53349057  0.35057484  0.14291795    -0.89900
H509        H  0.49641778  0.29559370  0.09494962     0.17800
H510        H  0.38841080  0.32099382  0.15248252     0.17800
N511        N  0.35145697  0.26769779  0.10480236    -0.89000
H512        H  0.55359206  0.36977537  0.12427730     0.35100
H513        H  0.54022620  0.32509013  0.14735851     0.40200
H514        H  0.33498893  0.23248793  0.10593123     0.39800
H515        H  0.35075500  0.27740811  0.08191445     0.34700
C516        C  0.42992360  0.32299770  0.36723234    -0.27000
C517        C  0.47140188  0.34039761  0.35185630    -0.15100
C518        C  0.50353197  0.33150077  0.36385703     0.35600
C519        C  0.49482213  0.30867172  0.39203214    -0.26400
C520        C  0.45452921  0.29367692  0.40835106    -0.15700
C521        C  0.42084367  0.29909265  0.39517947     0.36600
N522        N  0.37798680  0.28095541  0.41023340    -0.89900
H523        H  0.40461214  0.32864429  0.35771072     0.17800
H524        H  0.52044830  0.30350410  0.40157015     0.17800
N525        N  0.54486629  0.34547637  0.34771939    -0.89000
H526        H  0.36209397  0.24564221  0.40983844     0.35100
H527        H  0.35738900  0.28873435  0.39768488     0.40200
H528        H  0.53664316  0.32680131  0.32695761     0.39800
H529        H  0.56516901  0.33738423  0.36034760     0.34700
C530        C  0.72139883  0.56237451  0.12015114    -0.27000
C531        C  0.71883910  0.59205589  0.09945551    -0.15100
C532        C  0.68800093  0.60586572  0.10495090     0.35600
C533        C  0.65986695  0.58919916  0.13092844    -0.26400
C534        C  0.66179283  0.55894317  0.15138298    -0.15700
C535        C  0.69280247  0.54527871  0.14590152     0.36600
N536        N  0.69659381  0.51497189  0.16628799    -0.89900
H537        H  0.74474990  0.55131549  0.11571759     0.17800
H538        H  0.63620140  0.59988831  0.13521184     0.17800
N539        N  0.68555802  0.63685913  0.08420052    -0.89000
H540        H  0.66592905  0.48419972  0.16646992     0.35100
H541        H  0.70338883  0.52877545  0.18879177     0.40200
H542        H  0.71625205  0.66758065  0.08537774     0.39800
H543        H  0.66091378  0.64343099  0.09156801     0.34700
C544        C  0.66876819  0.57707749  0.37280807    -0.27000
C545        C  0.67026788  0.54919385  0.34969969    -0.15100
C546        C  0.69843887  0.53170672  0.35372601     0.35600
C547        C  0.72397114  0.54206596  0.38126534    -0.26400
C548        C  0.72049276  0.56825554  0.40485906    -0.15700
C549        C  0.69322757  0.58645725  0.40035706     0.36600
N550        N  0.68920280  0.61302417  0.42449062    -0.89900
H551        H  0.64722870  0.59058592  0.36986661     0.17800
H552        H  0.74433981  0.52741771  0.38514635     0.17800
N553        N  0.70126596  0.50391621  0.32999490    -0.89000
H554        H  0.66530604  0.62109976  0.41842628     0.35100
H555        H  0.72009067  0.64340369  0.42635763     0.40200
H556        H  0.67026789  0.47336018  0.32923443     0.39800
H557        H  0.72505571  0.49568896  0.33606462     0.34700
C558        C  0.52224544  0.67564787  0.14894658    -0.27000
C559        C  0.55306924  0.66568254  0.16139042    -0.15100
C560        C  0.59723510  0.68790644  0.14858818     0.35600
C561        C  0.60791451  0.71626181  0.12243558    -0.26400
C562        C  0.57613854  0.72401415  0.10884910    -0.15700
C563        C  0.53311893  0.70440535  0.12326071     0.36600
N564        N  0.49958648  0.71320999  0.11267460    -0.89900
H565        H  0.48893011  0.66044226  0.15892811     0.17800
H566        H  0.64090656  0.73115157  0.11194359     0.17800
N567        N  0.63105354  0.68097249  0.16151705    -0.89000
H568        H  0.48802774  0.69852034  0.09075655     0.35100
H569        H  0.51387181  0.74820290  0.11132041     0.40200
H570        H  0.63968682  0.69679274  0.18337892     0.39800
H571        H  0.66039840  0.69714493  0.14818703     0.34700
C572        C  0.58459320  0.65458990  0.37983118    -0.27000
C573        C  0.54810304  0.64668729  0.36106604    -0.15100
C574        C  0.52381736  0.66723349  0.36914729     0.35600
C575        C  0.53501746  0.69354462  0.39621020    -0.26400
C576        C  0.56984899  0.69963102  0.41568504    -0.15700
C577        C  0.59549008  0.68082659  0.40730216     0.36600
N578        N  0.63308689  0.68970275  0.42615676    -0.89900
H579        H  0.60407183  0.63968178  0.37335755     0.17800
H580        H  0.51565889  0.70865633  0.40238459     0.17800
N581        N  0.48852113  0.66252993  0.34955343    -0.89000
H582        H  0.65047303  0.67611321  0.41568897     0.35100
H583        H  0.62044941  0.67305326  0.44725064     0.40200
H584        H  0.49662306  0.69478335  0.34270086     0.39800
H585        H  0.45891033  0.64807315  0.36257184     0.34700
C586        C  0.30184944  0.46275267  0.12030800    -0.27000
C587        C  0.27377296  0.41767708  0.10991808    -0.15100
C588        C  0.27327052  0.38280221  0.12691763     0.35600
C589        C  0.30270707  0.39397646  0.15240905    -0.26400
C590        C  0.33294082  0.43927489  0.16139876    -0.15700
C591        C  0.33178957  0.47399497  0.14535417     0.36600
N592        N  0.36208914  0.52069416  0.15361206    -0.89900
H593        H  0.30224689  0.48992951  0.10775540     0.17800
H594        H  0.30238875  0.36689208  0.16493185     0.17800
N595        N  0.24443411  0.33637152  0.11756757    -0.89000
H596        H  0.35593530  0.54184701  0.14011369     0.35100
H597        H  0.39461342  0.52874808  0.14802334     0.40200
H598        H  0.21129578  0.32780050  0.12123145     0.39800
H599        H  0.24945068  0.31504403  0.13176473     0.34700
C600        C  0.34905617  0.46491993  0.41460695    -0.27000
C601        C  0.30846883  0.42387574  0.41988417    -0.15100
C602        C  0.29108717  0.39078892  0.39619610     0.35600
C603        C  0.31446370  0.39924079  0.36779810    -0.26400
C604        C  0.35408970  0.44112819  0.36207974    -0.15700
C605        C  0.37141949  0.47438090  0.38582069     0.36600
N606        N  0.41202223  0.51738650  0.38092263    -0.89900
H607        H  0.36240822  0.49077092  0.43259167     0.17800
H608        H  0.30096207  0.37332090  0.34985137     0.17800
N609        N  0.25002132  0.34850806  0.40099678    -0.89000
H610        H  0.42207903  0.53646631  0.40152004     0.35100
H611        H  0.40449128  0.53538251  0.36528530     0.40200
H612        H  0.25667644  0.32264957  0.39825868     0.39800
H613        H  0.22734612  0.34465948  0.38360381     0.34700
C614        C  0.83857185  0.51897615  0.10232548    -0.27000
C615        C  0.85966271  0.56536964  0.09574213    -0.15100
C616        C  0.89500898  0.59681152  0.11514346     0.35600
C617        C  0.90754007  0.58108894  0.14079836    -0.26400
C618        C  0.88662554  0.53460937  0.14740988    -0.15700
C619        C  0.85170219  0.50326338  0.12748014     0.36600
N620        N  0.82879409  0.45538260  0.13161278    -0.89900
H621        H  0.81165847  0.49421796  0.08754547     0.17800
H622        H  0.93458100  0.60575691  0.15549834     0.17800
N623        N  0.91842610  0.64451255  0.10881048    -0.89000
H624        H  0.81243353  0.44725377  0.15306994     0.35100
H625        H  0.85223034  0.44529764  0.13044525     0.40200
H626        H  0.93699325  0.65007502  0.08842978     0.39800
H627        H  0.94187736  0.66300751  0.12632287     0.34700
C628        C  0.81108763  0.49198838  0.38568388    -0.27000
C629        C  0.83851758  0.52781709  0.40616279    -0.15100
C630        C  0.88302742  0.56008590  0.39715279     0.35600
C631        C  0.89952018  0.55445513  0.36872417    -0.26400
C632        C  0.87242258  0.51794023  0.34879285    -0.15700
C633        C  0.82723902  0.48710589  0.35693748     0.36600
N634        N  0.79766482  0.45151501  0.33585572    -0.89900
H635        H  0.77656703  0.46764931  0.39195982     0.17800
H636        H  0.93404350  0.57853310  0.36227746     0.17800
N637        N  0.91163480  0.59809031  0.41687404    -0.89000
H638        H  0.79389631  0.46653168  0.31625203     0.35100
H639        H  0.76539845  0.43149222  0.34565530     0.40200
H640        H  0.89882807  0.61935395  0.41707650     0.39800
H641        H  0.94403715  0.61708436  0.40753209     0.34700
C642        C  0.94089197  0.35484123  0.11904391    -0.27000
C643        C  0.90778209  0.34798810  0.14078638    -0.15100
C644        C  0.86227478  0.31711033  0.13418746     0.35600
C645        C  0.85056209  0.29239000  0.10637970    -0.26400
C646        C  0.88364358  0.29862553  0.08487597    -0.15700
C647        C  0.92922212  0.33075705  0.09082969     0.36600
N648        N  0.96351172  0.33709580  0.06915158    -0.89900
H649        H  0.97599055  0.37881900  0.12419617     0.17800
H650        H  0.81542361  0.26782066  0.10168713     0.17800
N651        N  0.82811017  0.30924519  0.15624293    -0.89000
H652        H  0.99525221  0.36010366  0.07798449     0.35100
H653        H  0.95992910  0.35201560  0.04907621     0.40200
H654        H  0.81073465  0.27501263  0.16220092     0.39800
H655        H  0.80547755  0.31588076  0.14531317     0.34700
C656        C  0.92150603  0.33182073  0.37009712    -0.27000
C657        C  0.91029857  0.36201616  0.35781818    -0.15100
C658        C  0.89128751  0.38039135  0.37763309     0.35600
C659        C  0.88141754  0.36584825  0.40872898    -0.26400
C660        C  0.89075303  0.33402666  0.42030601    -0.15700
C661        C  0.91151070  0.31743814  0.40101503     0.36600
N662        N  0.92108302  0.28474426  0.41250355    -0.89900
H663        H  0.93659189  0.31789840  0.35533849     0.17800
H664        H  0.86474338  0.37794172  0.42362766     0.17800
N665        N  0.88189802  0.41342521  0.36622349    -0.89000
H666        H  0.95562130  0.29804217  0.41013088     0.35100
H667        H  0.90413305  0.25577729  0.39854009     0.40200
H668        H  0.91266963  0.44256467  0.36086190     0.39800
H669        H  0.86721101  0.42273785  0.38361525     0.34700
C670        C  0.17508677  0.48220196  0.10501033    -0.27000
C671        C  0.14980408  0.43754398  0.09340179    -0.15100
C672        C  0.10949639  0.40634925  0.10879558     0.35600
C673        C  0.09612449  0.42007782  0.13544409    -0.26400
C674        C  0.12130342  0.46459760  0.14721772    -0.15700
C675        C  0.16135112  0.49588453  0.13167605     0.36600
N676        N  0.18853046  0.54138695  0.14284936    -0.89900
H677        H  0.20594594  0.50670884  0.09342277     0.17800
H678        H  0.06504793  0.39561007  0.14678903     0.17800
N679        N  0.08146421  0.36103419  0.09694167    -0.89000
H680        H  0.19155019  0.56314201  0.12502350     0.35100
H681        H  0.22059838  0.54753000  0.14769532     0.40200
H682        H  0.06934613  0.36320765  0.07523002     0.39800
H683        H  0.05327742  0.34225012  0.11113457     0.34700
C684        C  0.18171828  0.46673819  0.37397338    -0.27000
C685        C  0.15487005  0.44101624  0.39929061    -0.15100
C686        C  0.10778163  0.41996881  0.39700255     0.35600
C687        C  0.08942211  0.42990181  0.37130886    -0.26400
C688        C  0.11737103  0.45971056  0.34795769    -0.15700
C689        C  0.16363934  0.47619808  0.34860340     0.36600
N690        N  0.19308394  0.50158823  0.32349277    -0.89900
H691        H  0.21777531  0.48139709  0.37415122     0.17800
H692        H  0.05338997  0.41512686  0.36977636     0.17800
N693        N  0.07897134  0.38909513  0.42051120    -0.89000
H694        H  0.19469097  0.53235997  0.32160861     0.35100
H695        H  0.18020285  0.48311289  0.30285230     0.40200
H696        H  0.08323354  0.36138069  0.42024229     0.39800
H697        H  0.04532214  0.37635127  0.41497516     0.34700
C698        C  0.17203192  0.71575380  0.12011923    -0.27000
C699        C  0.14589833  0.72971409  0.10475779    -0.15100
C700        C  0.10335839  0.71698844  0.11676145     0.35600
C701        C  0.08679852  0.68823715  0.14265447    -0.26400
C702        C  0.11154424  0.67146008  0.15676036    -0.15700
C703        C  0.15531527  0.68652475  0.14552666     0.36600
N704        N  0.18323387  0.67186923  0.15854648    -0.89900
H705        H  0.20494522  0.72555321  0.11111582     0.17800
H706        H  0.05345805  0.67763752  0.15087452     0.17800
N707        N  0.07576801  0.73047704  0.10136939    -0.89000
H708        H  0.16726172  0.63678570  0.15579256     0.35100
H709        H  0.18802874  0.68030491  0.18218366     0.40200
H710        H  0.09122140  0.76542531  0.10422294     0.39800
H711        H  0.04427046  0.71599496  0.11210804     0.34700
C712        C  0.12919558  0.65204382  0.40911364    -0.27000
C713        C  0.12301753  0.68777823  0.41675642    -0.15100
C714        C  0.10140276  0.70096020  0.39540816     0.35600
C715        C  0.08786257  0.67884832  0.36646631    -0.26400
C716        C  0.09592535  0.64441633  0.35822580    -0.15700
C717        C  0.11663388  0.63069368  0.37992037     0.36600
N718        N  0.12443785  0.59490586  0.37251874    -0.89900
H719        H  0.14601636  0.64217153  0.42550116     0.17800
H720        H  0.07148879  0.68921878  0.35009135     0.17800
N721        N  0.09232018  0.73603291  0.40229317    -0.89000
H722        H  0.13654019  0.58659652  0.39201585     0.35100
H723        H  0.15022816  0.60746306  0.35607833     0.40200
H724        H  0.10230259  0.74867455  0.42490704     0.39800
H725        H  0.05751968  0.72138046  0.40173381     0.34700
C726        C  0.30933267  0.82792223  0.10215077    -0.27000
C727        C  0.29002535  0.85151587  0.09018324    -0.15100
C728        C  0.30069290  0.89278962  0.10474777     0.35600
C729        C  0.32947844  0.90883956  0.13048354    -0.26400
C730        C  0.34860278  0.88520809  0.14267506    -0.15700
C731        C  0.33806228  0.84392448  0.12828457     0.36600
N732        N  0.35594506  0.81796376  0.14013005    -0.89900
H733        H  0.30162669  0.79642936  0.09119311     0.17800
H734        H  0.33724025  0.94069895  0.14086014     0.17800
N735        N  0.28432220  0.92029115  0.09348640    -0.89000
H736        H  0.34686641  0.78992091  0.12587154     0.35100
H737        H  0.34073168  0.80512894  0.16169889     0.40200
H738        H  0.24926708  0.90222841  0.09531706     0.39800
H739        H  0.29378554  0.92830547  0.07022659     0.34700
C740        C  0.28974128  0.81206181  0.37061753    -0.27000
C741        C  0.29070656  0.83916195  0.39547357    -0.15100
C742        C  0.31141000  0.88622001  0.39081766     0.35600
C743        C  0.33601372  0.90547793  0.36332298    -0.26400
C744        C  0.33908119  0.87853529  0.34017305    -0.15700
C745        C  0.31326521  0.83101701  0.34316592     0.36600
N746        N  0.30903839  0.80090555  0.31858362    -0.89900
H747        H  0.27167144  0.77555964  0.37274708     0.17800
H748        H  0.35401998  0.94176619  0.36037756     0.17800
N749        N  0.30815447  0.91437814  0.41391925    -0.89000
H750        H  0.33968591  0.80310593  0.31523751     0.35100
H751        H  0.29976226  0.81013182  0.29817676     0.40200
H752        H  0.27441238  0.90481323  0.41535427     0.39800
H753        H  0.32608903  0.94826281  0.40707653     0.34700
C754        C  0.52998412  0.84441126  0.10328807    -0.27000
C755        C  0.57465016  0.85834963  0.09572326    -0.15100
C756        C  0.60970148  0.89126720  0.11507172     0.35600
C757        C  0.59941341  0.90907293  0.14067111    -0.26400
C758        C  0.55508232  0.89596820  0.14775597    -0.15700
C759        C  0.51981859  0.86319549  0.12881328     0.36600
N760        N  0.47399784  0.84979814  0.13498800    -0.89900
H761        H  0.50279064  0.81948551  0.08879379     0.17800
H762        H  0.62686095  0.93381876  0.15505404     0.17800
N763        N  0.65633772  0.90850482  0.10926628    -0.89000
H764        H  0.45221237  0.82490040  0.11920663     0.35100
H765        H  0.47119981  0.87796328  0.13111698     0.40200
H766        H  0.66494233  0.92410953  0.08751657     0.39800
H767        H  0.66209088  0.88184294  0.10988416     0.34700
C768        C  0.57480545  0.90062502  0.40241162    -0.27000
C769        C  0.55648382  0.85366340  0.40118289    -0.15100
C770        C  0.53499706  0.82981465  0.37335045     0.35600
C771        C  0.53003201  0.85270715  0.34848223    -0.26400
C772        C  0.54731987  0.89914183  0.34998978    -0.15700
C773        C  0.57051312  0.92369026  0.37699516     0.36600
N774        N  0.58811953  0.97148855  0.37897935    -0.89900
H775        H  0.59070015  0.91900502  0.42365302     0.17800
H776        H  0.51305092  0.83420081  0.32746918     0.17800
N777        N  0.51809395  0.78224550  0.37035864    -0.89000
H778        H  0.60393827  0.98438772  0.40031073     0.35100
H779        H  0.56077658  0.97613983  0.37821646     0.40200
H780        H  0.54568677  0.77842361  0.37047632     0.39800
H781        H  0.50202767  0.76970706  0.34878993     0.34700
C782        C  0.66473840  0.15293100  0.12774693    -0.27000
C783        C  0.66890370  0.12494455  0.14901889    -0.15100
C784        C  0.70106308  0.11268432  0.14334958     0.35600
C785        C  0.72482078  0.12476961  0.11515729    -0.26400
C786        C  0.71857811  0.15025702  0.09277541    -0.15700
C787        C  0.68957658  0.16626632  0.09989184     0.36600
N788        N  0.68501957  0.19573405  0.07897676    -0.89900
H789        H  0.64097187  0.16336592  0.13230145     0.17800
H790        H  0.74819075  0.11380128  0.11062424     0.17800
N791        N  0.70962414  0.08800582  0.16619648    -0.89000
H792        H  0.66636459  0.20807272  0.08927313     0.35100
H793        H  0.66591188  0.17595602  0.06013227     0.40200
H794        H  0.72341748  0.10897460  0.18575291     0.39800
H795        H  0.73383853  0.08124697  0.15822909     0.34700
C796        C  0.67574580  0.16517410  0.39896876    -0.27000
C797        C  0.70903230  0.15508673  0.40477660    -0.15100
C798        C  0.71651823  0.12909137  0.38331942     0.35600
C799        C  0.69036922  0.11378452  0.35606653    -0.26400
C800        C  0.65713848  0.12421615  0.35004341    -0.15700
C801        C  0.64930531  0.14963896  0.37210151     0.36600
N802        N  0.61398612  0.15871523  0.36778347    -0.89900
H803        H  0.66961213  0.18455977  0.41599160     0.17800
H804        H  0.69635206  0.09407124  0.33928530     0.17800
N805        N  0.75106045  0.11927908  0.38891867    -0.89000
H806        H  0.58340121  0.12779035  0.36891358     0.35100
H807        H  0.61358702  0.17871929  0.38593759     0.40200
H808        H  0.78193170  0.15001867  0.38892216     0.39800
H809        H  0.75229920  0.09983314  0.37072098     0.34700
C810        C  0.47825382  0.15362110  0.09542792    -0.27000
C811        C  0.43693019  0.15157536  0.09457879    -0.15100
C812        C  0.40863926  0.13596115  0.12098696     0.35600
C813        C  0.42022089  0.11886035  0.14629381    -0.26400
C814        C  0.46010498  0.11849895  0.14633629    -0.15700
C815        C  0.49015703  0.13719337  0.12112357     0.36600
N816        N  0.53150054  0.13754511  0.12106939    -0.89900
H817        H  0.50037107  0.16595555  0.07539995     0.17800
H818        H  0.39780130  0.10544600  0.16612292     0.17800
N819        N  0.36799062  0.13691368  0.12191729    -0.89000
H820        H  0.54982035  0.15257749  0.10073777     0.35100
H821        H  0.52333058  0.10397811  0.12062103     0.40200
H822        H  0.37722883  0.17085527  0.12147676     0.39800
H823        H  0.35084587  0.12365177  0.14285846     0.34700
C824        C  0.48722471  0.15560371  0.35656864    -0.27000
C825        C  0.45377030  0.11129185  0.34818754    -0.15100
C826        C  0.41655452  0.08707105  0.36867120     0.35600
C827        C  0.41456067  0.10694291  0.39660379    -0.26400
C828        C  0.44875060  0.15058264  0.40536791    -0.15700
C829        C  0.48539464  0.17545351  0.38475012     0.36600
N830        N  0.52142094  0.22032958  0.39265169    -0.89900
H831        H  0.51580752  0.17477536  0.34132475     0.17800
H832        H  0.38622346  0.08734707  0.41199074     0.17800
N833        N  0.38069308  0.04174699  0.36278088    -0.89000
H834        H  0.54409885  0.23482088  0.37417981     0.35100
H835        H  0.53933391  0.21715557  0.41079281     0.40200
H836        H  0.39411586  0.02137177  0.35935051     0.39800
H837        H  0.36276737  0.04154868  0.34330435     0.34700
C838        C  0.45679466  0.08848346  0.81840164     0.41800
N839        N  0.49153183  0.07967462  0.77971845     0.00700
C840        C  0.40608054  0.89012046  0.68504759    -0.07200
H841        H  0.40566503  0.85987078  0.80578439     0.06200
C842        C  0.57250022  0.95839310  0.80725608    -0.07600
Co843      Co  0.42951720  0.99581245  0.74376749     0.74200
N844        N  0.42047376  0.91650590  0.77711321    -0.26700
Co845      Co  0.46687572  0.92085243  0.74508227     0.74100
C846        C  0.53872279  0.91728746  0.82268075     0.41900
N847        N  0.59518686  0.06007026  0.78234152     0.00300
N848        N  0.51011238  0.92637921  0.78119272     0.00400
N849        N  0.38301119  0.93995064  0.68622583    -0.47600
H850        H  0.39026370  0.02328565  0.80415272     0.06100
N851        N  0.40612132  0.94486947  0.77694768     0.00700
N852        N  0.51412902  0.92697121  0.71282222     0.00400
C853        C  0.54741461  0.91550718  0.67518690     0.42000
N854        N  0.58149521  0.08892751  0.78173640    -0.26200
C855        C  0.43268391  0.05219354  0.68707533    -0.07100
N856        N  0.49706943  0.10671624  0.80355001    -0.47300
N857        N  0.50747557  0.89869017  0.68971387    -0.47500
C858        C  0.46643890  0.09408385  0.67232039     0.41800
N859        N  0.41075794  0.94708330  0.70937636     0.00700
N860        N  0.58602110  0.08952392  0.71358840    -0.26200
N861        N  0.44999979  0.04473771  0.77809940    -0.26700
N862        N  0.59931653  0.06033761  0.71510623     0.00300
H863        H  0.60289557  0.14433356  0.68187526     0.06200
H864        H  0.61517784  0.97999108  0.68730186     0.06200
N865        N  0.42468603  0.91835315  0.70947317    -0.26800
N866        N  0.55170607  0.96135327  0.78212668    -0.26400
N867        N  0.49629508  0.08118273  0.71111025     0.00700
C868        C  0.36977939  0.89905205  0.81395441     0.42100
C869        C  0.59922693  0.11702610  0.80615188    -0.07600
N870        N  0.55600050  0.96124317  0.71441791    -0.26400
H871        H  0.60709851  0.98197915  0.81363643     0.06200
N872        N  0.37587917  0.93585809  0.79889146    -0.47600
H873        H  0.59442366  0.14475934  0.81108058     0.06200
C874        C  0.63525147  0.10109719  0.67579842     0.41900
C875        C  0.42557649  0.04741643  0.80105127    -0.07100
Co876      Co  0.53954358  0.08636825  0.74650733     0.73800
N877        N  0.62172549  0.06666335  0.80616564    -0.47300
C878        C  0.37801593  0.90446729  0.66969671     0.42200
N879        N  0.50512626  0.11051715  0.68845755    -0.47300
Co880      Co  0.57633488  0.01090006  0.74851558     0.73900
C881        C  0.57978257  0.95688882  0.69168246    -0.07600
C882        C  0.39974651  0.88651432  0.79988383    -0.07200
N883        N  0.45428022  0.04680754  0.71066445    -0.26700
N884        N  0.50096357  0.89870176  0.80501431    -0.47500
H885        H  0.41147885  0.86298971  0.67930462     0.06500
C886        C  0.60695913  0.11694280  0.68919243    -0.07600
Cl887      Cl  0.50304554  0.00351973  0.74592223    -0.50600
C888        C  0.62564642  0.10174868  0.82251261     0.41900
H889        H  0.39763095  0.02976056  0.68118947     0.06100
N890        N  0.62825957  0.06602982  0.69319953    -0.47300
C891        C  0.07805699  0.62399782  0.82790554     0.41800
N892        N  0.07282516  0.58721673  0.78638101     0.00700
C893        C  0.88997403  0.47908496  0.68817236    -0.07200
H894        H  0.85562869  0.43536954  0.80874320     0.06200
C895        C  0.96172434  0.38307699  0.80708000    -0.07600
Co896      Co  0.98990207  0.56306797  0.75100918     0.74200
N897        N  0.91147192  0.48407721  0.78120019    -0.26700
Co898      Co  0.91974074  0.44686350  0.74659618     0.74100
C899        C  0.92253285  0.37597538  0.82413722     0.41900
N900        N  0.06046286  0.46614310  0.78259183     0.00300
N901        N  0.92681691  0.40837197  0.78076279     0.00400
N902        N  0.93663423  0.55467468  0.69293906    -0.47600
H903        H  0.01312425  0.62284440  0.81729173     0.06100
N904        N  0.93861616  0.52826628  0.78332657     0.00700
N905        N  0.92999977  0.41059424  0.71199711     0.00400
C906        C  0.92558256  0.37258347  0.67132215     0.42000
N907        N  0.08775624  0.51041069  0.78369324    -0.26200
C908        C  0.04663981  0.62775866  0.69817977    -0.07100
N909        N  0.09805838  0.60607245  0.81140255    -0.47300
N910        N  0.90472562  0.39025558  0.68716049    -0.47500
C911        C  0.09041177  0.64333449  0.68407537     0.41800
N912        N  0.94308198  0.53299605  0.71544697     0.00700
N913        N  0.09026905  0.51370331  0.71522897    -0.26200
N914        N  0.03730853  0.59129944  0.78603186    -0.26700
N915        N  0.06322565  0.46928044  0.71513375     0.00300
H916        H  0.14613573  0.55883137  0.68565689     0.06200
H917        H  0.99065211  0.37482104  0.68327230     0.06200
N918        N  0.91632651  0.48872107  0.71330119    -0.26800
N919        N  0.96229942  0.40431053  0.78101024    -0.26400
N920        N  0.07679266  0.59302373  0.71852159     0.00700
C921        C  0.89325136  0.51126919  0.82183988     0.42100
C922        C  0.11589651  0.52072431  0.80777734    -0.07600
N923        N  0.96561328  0.40686299  0.71311927    -0.26400
H924        H  0.98763007  0.37703737  0.81450022     0.06200
N925        N  0.92909369  0.54587660  0.80737828    -0.47600
H926        H  0.14172447  0.55454071  0.81465762     0.06200
C927        C  0.10686121  0.48146474  0.67611921     0.41900
C928        C  0.03809532  0.61465287  0.81114699    -0.07100
Co929      Co  0.08324964  0.55200934  0.75083585     0.73800
N930        N  0.06846463  0.44489870  0.80463890    -0.47300
C931        C  0.90363557  0.52336001  0.67446313     0.42200
N932        N  0.10708437  0.62026382  0.69791802    -0.47300
Co933      Co  0.01282344  0.43577687  0.74797855     0.73900
C934        C  0.96563639  0.38331492  0.68847011    -0.07600
C935        C  0.88146519  0.47015045  0.80439676    -0.07200
N936        N  0.04130578  0.59703353  0.71911197    -0.26700
N937        N  0.90245440  0.39239807  0.80643850    -0.47500
H938        H  0.86484502  0.44518063  0.68112186     0.06200
C939        C  0.11924786  0.52489957  0.69119445    -0.07600
Cl940      Cl  0.00150844  0.49952268  0.74900748    -0.50600
C941        C  0.10294895  0.47701661  0.82150349     0.41900
H942        H  0.02319968  0.63866585  0.69438208     0.06100
N943        N  0.07211718  0.44913326  0.69257694    -0.47300
C944        C  0.38246688  0.45100880  0.83400730     0.41800
N945        N  0.42132561  0.48400457  0.79293912     0.00700
C946        C  0.51458345  0.39785055  0.69253416    -0.07200
H947        H  0.55440464  0.40310815  0.81269539     0.06200
C948        C  0.63214020  0.57077904  0.80967565    -0.07600
Co949      Co  0.43761537  0.42153043  0.75475334     0.74200
N950        N  0.51112124  0.41553372  0.78475895    -0.26700
Co951      Co  0.55207592  0.46173246  0.75106334     0.74100
C952        C  0.64253534  0.53870297  0.82289597     0.41900
N953        N  0.54774973  0.58973197  0.79200603     0.00300
N954        N  0.59514483  0.50660205  0.78544155     0.00400
N955        N  0.44061535  0.37277138  0.69624416    -0.47600
H956        H  0.37626172  0.38375511  0.82059123     0.06100
N957        N  0.46777358  0.40042528  0.78592664     0.00700
N958        N  0.59213482  0.50978623  0.71754431     0.00400
C959        C  0.63628006  0.54608735  0.67974427     0.42000
N960        N  0.50453059  0.57530913  0.79266264    -0.26200
C961        C  0.37775752  0.42057708  0.70166186    -0.07100
N962        N  0.40399085  0.49079266  0.81847193    -0.47300
N963        N  0.61351156  0.50508329  0.69357278    -0.47500
C964        C  0.36782372  0.45270947  0.68809810     0.41800
N965        N  0.46400902  0.40225482  0.71858939     0.00700
N966        N  0.50285636  0.57940647  0.72439189    -0.26200
N967        N  0.41282403  0.44223946  0.79109755    -0.26700
N968        N  0.54612635  0.59385714  0.72429507     0.00300
H969        H  0.46355171  0.59782979  0.69640977     0.06200
H970        H  0.64034648  0.61207417  0.69356976     0.06200
N971        N  0.50738050  0.41738013  0.71708149    -0.26800
N972        N  0.60274287  0.54796521  0.78695039    -0.26400
N973        N  0.41716975  0.48597821  0.72432590     0.00700
C974        C  0.47818590  0.36668726  0.82335335     0.42100
C975        C  0.49623091  0.59246357  0.81800660    -0.07600
N976        N  0.59999234  0.55126215  0.71998698    -0.26400
H977        H  0.64502137  0.60582839  0.81546461     0.06200
N978        N  0.44693479  0.37132715  0.80863668    -0.47600
H979        H  0.46359159  0.58591280  0.82494290     0.06200
C980        C  0.54017652  0.63220309  0.68750318     0.41900
C981        C  0.38799857  0.41876195  0.81571049    -0.07100
Co982      Co  0.46067694  0.53172445  0.75841257     0.73800
N983        N  0.57013411  0.61622239  0.81594686    -0.47300
C984        C  0.46995047  0.36795025  0.67860460     0.42200
N985        N  0.39344551  0.49261986  0.70333544    -0.47300
Co986      Co  0.57456686  0.57126051  0.75589193     0.73900
C987        C  0.62732311  0.57648295  0.69708388    -0.07600
C988        C  0.52113963  0.39634412  0.80770342    -0.07200
N989        N  0.40849751  0.44410539  0.72365738    -0.26700
N990        N  0.61832671  0.49952541  0.80662885    -0.47500
H991        H  0.54707744  0.40366767  0.68611237     0.06200
C992        C  0.49563277  0.60176021  0.70177102    -0.07600
Cl993      Cl  0.50619902  0.49656658  0.75488924    -0.50600
C994        C  0.53985745  0.61960887  0.83335798     0.41900
H995        H  0.36382688  0.38520323  0.69621397     0.06100
N996        N  0.56911735  0.62483232  0.70294747    -0.47300
O997        O  0.77657727  0.49010721  0.00828888    -0.80800
O998        O  0.78658540  0.61638056  0.56951854    -0.80800
O999        O  0.81663081  0.55030440  0.54874499    -0.80800
O1000       O  0.69549987  0.52039416  0.51910187    -0.80800
O1001       O  0.86386170  0.62067090  0.55780269    -0.80900
O1002       O  0.71139133  0.49418907  0.97803242    -0.80800
O1003       O  0.72630627  0.60349135  0.54450398    -0.80800
O1004       O  0.84910912  0.51919839  0.00729709    -0.80900
C1005       C  0.81013930  0.48457002  0.01088374     1.08900
C1006       C  0.74582222  0.60462090  0.56933521     1.08800
C1007       C  0.84631588  0.58002618  0.56596968     1.08900
C1008       C  0.68441325  0.48816433  0.99990219     1.08800
O1009       O  0.77651075  0.57408505  0.94312114    -0.80800
O1010       O  0.87763915  0.67127817  0.50214957    -0.80900
O1011       O  0.84177610  0.56341182  0.95807557    -0.80800
O1012       O  0.75813812  0.64162711  0.48381068    -0.80800
O1013       O  0.80216723  0.68108182  0.52216466    -0.80900
O1014       O  0.78140514  0.49900662  0.94635651    -0.80800
O1015       O  0.71198760  0.56158318  0.95862280    -0.80800
O1016       O  0.88803469  0.61388308  0.00804140    -0.80900
Co1017     Co  0.77798608  0.53663034  0.97758960     1.51500
Co1018     Co  0.82981382  0.64367335  0.53465163     1.51700
Co1019     Co  0.82580683  0.55875994  0.00535910     1.51600
Co1020     Co  0.72740878  0.58159134  0.50206784     1.51500
O1021       O  0.78894620  0.58753541  0.50568678    -1.42800
C1022       C  0.73886052  0.56829015  0.93691499     1.08800
C1023       C  0.90321777  0.65545585  0.49906732     1.08900
C1024       C  0.82108602  0.52939714  0.93918870     1.08800
C1025       C  0.77291956  0.67476175  0.50183084     1.08800
O1026       O  0.71587739  0.21435393  0.99893306    -0.80800
O1027       O  0.84243979  0.22642151  0.56129305    -0.80800
O1028       O  0.73634804  0.17654117  0.54205764    -0.80800
O1029       O  0.81398095  0.29659814  0.51281595    -0.80800
O1030       O  0.76912873  0.14194161  0.55758550    -0.80900
O1031       O  0.77289676  0.29258763  0.97041596    -0.80800
O1032       O  0.88463253  0.28603919  0.53205308    -0.80800
O1033       O  0.67688883  0.13918023  0.99338332    -0.80900
C1034       C  0.67754815  0.17589257  0.99621812     1.08900
C1035       C  0.87065616  0.26814363  0.55835936     1.08800
C1036       C  0.74215721  0.15501945  0.56281104     1.08900
C1037       C  0.79209836  0.31204006  0.99577699     1.08800
O1038       O  0.83264497  0.27316865  0.94665232    -0.80800
O1039       O  0.80422840  0.12053965  0.50545449    -0.80900
O1040       O  0.73919901  0.14821409  0.95209687    -0.80800
O1041       O  0.88710610  0.24757702  0.47511191    -0.80800
O1042       O  0.88814605  0.20679285  0.51394159    -0.80900
O1043       O  0.74668219  0.21224644  0.94004462    -0.80800
O1044       O  0.88721980  0.32724499  0.97496688    -0.80800
O1045       O  0.73252544  0.10532640  0.00529108    -0.80900
Co1046     Co  0.77981206  0.24276221  0.97801548     1.51500
Co1047     Co  0.82502921  0.17588225  0.53186294     1.51700
Co1048     Co  0.73920598  0.16480631  0.99636702     1.51600
Co1049     Co  0.84831106  0.26777975  0.49347602     1.51500
O1050       O  0.80223600  0.20165423  0.49841146    -1.42800
C1051       C  0.86971076  0.31171326  0.94849672     1.08800
C1052       C  0.76217859  0.09216253  0.50152215     1.08900
C1053       C  0.73414311  0.17227718  0.93276539     1.08800
C1054       C  0.90801654  0.23467292  0.49182308     1.08800
O1055       O  0.28842337  0.77257279  0.98505841    -0.80800
O1056       O  0.14703589  0.77521621  0.56062319    -0.80800
O1057       O  0.27021707  0.81400540  0.54264515    -0.80800
O1058       O  0.20802995  0.70305981  0.51519441    -0.80800
O1059       O  0.23276373  0.84744118  0.55486905    -0.80900
O1060       O  0.20857809  0.69451460  0.96397062    -0.80800
O1061       O  0.17612510  0.73302736  0.55769614    -0.80800
O1062       O  0.32826747  0.84606914  0.99527255    -0.80900
C1063       C  0.32634532  0.80890498  0.99170950     1.08900
C1064       C  0.15778903  0.74936082  0.57347520     1.08800
C1065       C  0.26142982  0.83639886  0.56167138     1.08900
C1066       C  0.20801930  0.67856199  0.98984388     1.08800
O1067       O  0.17745123  0.74941448  0.94166126    -0.80800
O1068       O  0.20988859  0.86798221  0.49368305    -0.80900
O1069       O  0.26950260  0.84128490  0.95170017    -0.80800
O1070       O  0.10400468  0.71982511  0.51564628    -0.80800
O1071       O  0.12486080  0.78832014  0.49855233    -0.80900
O1072       O  0.25864553  0.78072106  0.93003465    -0.80800
O1073       O  0.13477648  0.69090817  0.97142452    -0.80800
O1074       O  0.27685590  0.88112651  0.00658024    -0.80900
Co1075     Co  0.22656711  0.75742417  0.96756236     1.51500
Co1076     Co  0.17998808  0.81785628  0.52474161     1.51700
Co1077     Co  0.26590045  0.82068175  0.99756105     1.51600
Co1078     Co  0.15919799  0.71526540  0.51464535     1.51500
O1079       O  0.20114904  0.77944561  0.50248870    -1.42800
C1080       C  0.14245416  0.71121356  0.94540229     1.08800
C1081       C  0.25155770  0.89621566  0.49670591     1.08900
C1082       C  0.27261034  0.82135685  0.92757636     1.08800
C1083       C  0.09493873  0.74677014  0.50213898     1.08800
O1084       O  0.53100029  0.85519849  0.00127713    -0.80800
O1085       O  0.55145434  0.73033011  0.55850674    -0.80800
O1086       O  0.49549232  0.70529124  0.96387050    -0.80800
O1087       O  0.62342012  0.85002496  0.55945282    -0.80800
O1088       O  0.49427403  0.70586114  0.51229197    -0.80900
O1089       O  0.55247832  0.81979110  0.54654418    -0.80800
O1090       O  0.62372383  0.77161396  0.56670007    -0.80800
O1091       O  0.49633977  0.78267973  0.98712032    -0.80900
C1092       C  0.49499963  0.81790508  0.99559407     1.08900
C1093       C  0.58403278  0.74360237  0.57657738     1.08800
C1094       C  0.47529906  0.68842574  0.98838899     1.08900
C1095       C  0.58407598  0.84108246  0.56593182     1.08800
O1096       O  0.62132500  0.88943037  0.01102904    -0.80800
O1097       O  0.56340959  0.69938912  0.97289666    -0.80900
O1098       O  0.53601762  0.79066773  0.93291874    -0.80800
O1099       O  0.66844429  0.78735757  0.50661894    -0.80800
O1100       O  0.61427898  0.71915636  0.52043821    -0.80900
O1101       O  0.58293738  0.85191603  0.95637634    -0.80800
O1102       O  0.67144269  0.86908907  0.50099234    -0.80800
O1103       O  0.58554355  0.76087935  0.94554001    -0.80900
Co1104     Co  0.56668002  0.82946815  0.00257980     1.51500
Co1105     Co  0.55608028  0.71767903  0.51494904     1.51700
Co1106     Co  0.54280881  0.76724029  0.97030733     1.51600
Co1107     Co  0.64330576  0.81764528  0.53104836     1.51500
O1108       O  0.58449742  0.78384815  0.50540716    -1.42800
C1109       C  0.66126838  0.89918386  0.50184880     1.08800
C1110       C  0.57797250  0.72131353  0.94739081     1.08900
C1111       C  0.55977935  0.83203958  0.93189955     1.08800
C1112       C  0.65446921  0.74603846  0.51125673     1.08800
O1113       O  0.16263649  0.42251484  0.95146875    -0.80800
O1114       O  0.27880013  0.38192800  0.52222801    -0.80800
O1115       O  0.24443733  0.40350874  0.94761891    -0.80800
O1116       O  0.12993459  0.33312671  0.50311605    -0.80800
O1117       O  0.30609565  0.43616937  0.97596887    -0.80900
O1118       O  0.11712265  0.38658179  0.00791872    -0.80800
O1119       O  0.20902990  0.32954632  0.50872677    -0.80800
O1120       O  0.22659469  0.46560833  0.92627247    -0.80900
C1121       C  0.18424709  0.44384009  0.92626745     1.08900
C1122       C  0.25039645  0.34255555  0.51159995     1.08800
C1123       C  0.28577901  0.41759441  0.95043311     1.08900
C1124       C  0.10272113  0.34697415  0.50369344     1.08800
O1125       O  0.18985218  0.45713389  0.54616339    -0.80800
O1126       O  0.29784851  0.50499787  0.51362085    -0.80900
O1127       O  0.22285609  0.50027649  0.98082773    -0.80800
O1128       O  0.22798126  0.37542475  0.56810437    -0.80800
O1129       O  0.27018562  0.44780350  0.56038025    -0.80900
O1130       O  0.15208637  0.47272357  0.99460338    -0.80800
O1131       O  0.15573129  0.38621727  0.56168553    -0.80800
O1132       O  0.29327575  0.49722277  0.96542266    -0.80900
Co1133     Co  0.17874609  0.43820751  0.99978607     1.51500
Co1134     Co  0.28435138  0.44255530  0.51729158     1.51700
Co1135     Co  0.22937216  0.44607420  0.96568551     1.51600
Co1136     Co  0.18237447  0.35912704  0.53297920     1.51500
O1137       O  0.21935200  0.41678128  0.50662473    -1.42800
C1138       C  0.16830656  0.42764459  0.56685267     1.08800
C1139       C  0.31043786  0.51967115  0.98997717     1.08900
C1140       C  0.19008356  0.50598535  0.98729826     1.08800
C1141       C  0.25706391  0.41478248  0.57813435     1.08800
O1142       O  0.47281504  0.14083312  0.99835314    -0.80800
O1143       O  0.44488624  0.26235270  0.54780723    -0.80800
O1144       O  0.51094418  0.29263234  0.00202940    -0.80800
O1145       O  0.38025707  0.14702208  0.56041857    -0.80800
O1146       O  0.47258180  0.32697606  0.50401476    -0.80900
O1147       O  0.45035902  0.18251017  0.54439693    -0.80800
O1148       O  0.37460612  0.22328952  0.56162822    -0.80800
O1149       O  0.51516469  0.21488194  0.99651921    -0.80900
C1150       C  0.51179000  0.17638780  0.99694028     1.08900
C1151       C  0.41486153  0.25329283  0.56780322     1.08800
C1152       C  0.50871076  0.32830276  0.00351441     1.08900
C1153       C  0.42161075  0.16181443  0.56548206     1.08800
O1154       O  0.38092598  0.10391302  0.01242677    -0.80800
O1155       O  0.41624455  0.26543647  0.95850265    -0.80900
O1156       O  0.47240495  0.20430570  0.94405067    -0.80800
O1157       O  0.32180514  0.19683237  0.50695192    -0.80800
O1158       O  0.37862868  0.26805927  0.51127141    -0.80900
O1159       O  0.41334380  0.14128233  0.95608760    -0.80800
O1160       O  0.32500987  0.11493258  0.50543302    -0.80800
O1161       O  0.47696167  0.26640088  0.94768630    -0.80900
Co1162     Co  0.43178132  0.16303294  0.99986805     1.51500
Co1163     Co  0.43173640  0.26269133  0.50290586     1.51700
Co1164     Co  0.46906063  0.23061965  0.98431749     1.51600
Co1165     Co  0.35305742  0.17156207  0.53141309     1.51500
O1166       O  0.40414533  0.19850463  0.49939153    -1.42800
C1167       C  0.34126854  0.08950871  0.50447849     1.08800
C1168       C  0.44673512  0.27319366  0.93918075     1.08900
C1169       C  0.44227821  0.16510387  0.93581706     1.08800
C1170       C  0.33706147  0.23943429  0.50654341     1.08800
C1171       C  0.32789221  0.30139487  0.48762517    -0.27000
C1172       C  0.30787031  0.25870877  0.50177287    -0.15100
C1173       C  0.26475432  0.24078774  0.51534696     0.35600
C1174       C  0.24442346  0.26692688  0.51608223    -0.26400
C1175       C  0.26684533  0.31139376  0.50443660    -0.15700
C1176       C  0.30843573  0.32787302  0.48929222     0.36600
N1177       N  0.33200791  0.37232298  0.47628268    -0.89900
H1178       H  0.36055516  0.31572644  0.47666055     0.17800
H1179       H  0.21250171  0.25367531  0.52787829     0.17800
N1180       N  0.24226662  0.19774065  0.53040992    -0.89000
H1181       H  0.33749373  0.36938000  0.45265648     0.35100
H1182       H  0.36332178  0.39091594  0.48718203     0.40200
H1183       H  0.26302420  0.19836265  0.54810491     0.39800
H1184       H  0.23726303  0.17307356  0.51403509     0.34700
C1185       C  0.37022589  0.58368768  0.96071443    -0.27000
C1186       C  0.34837311  0.56635505  0.98911631    -0.15100
C1187       C  0.35957798  0.60077890  0.51082180     0.35600
C1188       C  0.40062410  0.64203801  0.51019467    -0.26400
C1189       C  0.42962719  0.64932255  0.98762395    -0.15700
C1190       C  0.41067840  0.62499116  0.95964981     0.36600
N1191       N  0.43309561  0.64091218  0.93031053    -0.89900
H1192       H  0.35707878  0.56428095  0.93936799     0.17800
H1193       H  0.41117558  0.66372739  0.53062831     0.17800
N1194       N  0.33129044  0.58900036  0.53770589    -0.89000
H1195       H  0.41150523  0.64387151  0.91508364     0.35100
H1196       H  0.43929689  0.61668776  0.92119824     0.40200
H1197       H  0.32339358  0.61391625  0.54103524     0.39800
H1198       H  0.34955461  0.58935944  0.55705784     0.34700
C1199       C  0.24648698  0.96563300  0.49815392    -0.27000
C1200       C  0.27207725  0.94564248  0.49255378    -0.15100
C1201       C  0.31886036  0.97427934  0.48679786     0.35600
C1202       C  0.33820265  0.02077139  0.48659326    -0.26400
C1203       C  0.31411473  0.04090063  0.49582427    -0.15700
C1204       C  0.26729310  0.01317103  0.50065894     0.36600
N1205       N  0.24166814  0.03284144  0.50999165    -0.89900
H1206       H  0.21087505  0.94416113  0.50291026     0.17800
H1207       H  0.37554003  0.04045785  0.98689570     0.17800
N1208       N  0.35085753  0.95751505  0.98881345    -0.89000
H1209       H  0.20820607  0.00760691  0.51402832     0.35100
H1210       H  0.24142674  0.05179395  0.49125076     0.40200
H1211       H  0.33670048  0.93206011  0.46742159     0.39800
H1212       H  0.35191186  0.94608488  0.50536323     0.34700
C1213       C  0.22726823  0.62586040  0.96701502    -0.27000
C1214       C  0.20782007  0.63659135  0.99165909    -0.15100
C1215       C  0.18329468  0.60437580  0.01489602     0.35600
C1216       C  0.17848295  0.56213468  0.01296737    -0.26400
C1217       C  0.19746311  0.55128120  0.98828648    -0.15700
C1218       C  0.22214975  0.58320770  0.96498587     0.36600
N1219       N  0.24023038  0.57165076  0.93890359    -0.89900
H1220       H  0.24528493  0.65032459  0.94878813     0.17800
H1221       H  0.15936887  0.53735757  0.03079730     0.17800
N1222       N  0.16096551  0.61256381  0.03976548    -0.89000
H1223       H  0.25754394  0.59919985  0.92395564     0.35100
H1224       H  0.21306383  0.54628510  0.92617907     0.40200
H1225       H  0.15005853  0.63055046  0.53942112     0.39800
H1226       H  0.20178910  0.65093307  0.55600909     0.34700
C1227       C  0.41457170  0.77962181  0.48952925    -0.27000
C1228       C  0.45095558  0.81374018  0.99856753    -0.15100
C1229       C  0.44535489  0.84654270  0.01401205     0.35600
C1230       C  0.40354288  0.84299522  0.01251234    -0.26400
C1231       C  0.36734307  0.80738544  0.99611467    -0.15700
C1232       C  0.37299837  0.77634409  0.48834487     0.36600
N1233       N  0.33496773  0.73431129  0.47806667    -0.89900
H1234       H  0.41625969  0.75060936  0.48218041     0.17800
H1235       H  0.39952574  0.86875200  0.02369405     0.17800
N1236       N  0.48198463  0.88351397  0.03069481    -0.89000
H1237       H  0.32154903  0.73995076  0.45817448     0.35100
H1238       H  0.31091138  0.72147559  0.49582730     0.40200
H1239       H  0.48968842  0.86989507  0.04951367     0.39800
H1240       H  0.47224463  0.90498891  0.04013901     0.34700
C1241       C  0.67918830  0.97220226  0.97890291    -0.27000
C1242       C  0.69462789  0.94755609  0.49571825    -0.15100
C1243       C  0.73559260  0.97194673  0.51225421     0.35600
C1244       C  0.76027903  0.01984918  0.51156502    -0.26400
C1245       C  0.74424275  0.04341260  0.49501383    -0.15700
C1246       C  0.70353820  0.01950619  0.97768374     0.36600
N1247       N  0.68745142  0.04233007  0.95900303    -0.89900
H1248       H  0.64767739  0.95317866  0.96640937     0.17800
H1249       H  0.79000806  0.03868781  0.52592678     0.17800
N1250       N  0.75040346  0.94827688  0.53123539    -0.89000
H1251       H  0.65754803  0.01908710  0.94771241     0.35100
H1252       H  0.71129369  0.05947092  0.94156995     0.40200
H1253       H  0.72698926  0.93242945  0.54914846     0.39800
H1254       H  0.78102891  0.97110529  0.54190805     0.34700
C1255       C  0.03190636  0.26914616  0.49784640    -0.27000
C1256       C  0.05346094  0.31671334  0.49646054    -0.15100
C1257       C  0.02653473  0.33537113  0.49057794     0.35600
C1258       C  0.98009590  0.30706465  0.48631633    -0.26400
C1259       C  0.95814463  0.25998686  0.48948198    -0.15700
C1260       C  0.98442733  0.24069074  0.49506504     0.36600
N1261       N  0.96286220  0.19256181  0.49840885    -0.89900
H1262       H  0.05180714  0.25422648  0.50256524     0.17800
H1263       H  0.96062709  0.32272725  0.48270410     0.17800
N1264       N  0.04641095  0.38252658  0.98321284    -0.89000
H1265       H  0.98673120  0.18368000  0.50253294     0.35100
H1266       H  0.94758245  0.17773062  0.47714545     0.40200
H1267       H  0.03292318  0.39331353  0.00054642     0.39800
H1268       H  0.03680792  0.38881343  0.96178421     0.34700
C1269       C  0.63206592  0.20809557  0.98069398    -0.27000
C1270       C  0.63451122  0.17468218  0.99694298    -0.15100
C1271       C  0.59811547  0.14258134  0.51580436     0.35600
C1272       C  0.55822284  0.14349025  0.51505736    -0.26400
C1273       C  0.55352721  0.17493670  0.99570944    -0.15700
C1274       C  0.59224796  0.20860136  0.97981029     0.36600
N1275       N  0.59118142  0.24282363  0.96203054    -0.89900
H1276       H  0.66100363  0.23333327  0.96776564     0.17800
H1277       H  0.52890516  0.11827890  0.52770701     0.17800
N1278       N  0.59996389  0.10872769  0.53363002    -0.89000
H1279       H  0.60056205  0.24098634  0.93917848     0.35100
H1280       H  0.61545116  0.27439984  0.97111191     0.40200
H1281       H  0.60186202  0.08665412  0.51796241     0.39800
H1282       H  0.57010202  0.08918003  0.54607900     0.34700
C1283       C  0.97411047  0.66339349  0.48010419    -0.27000
C1284       C  0.95216564  0.68483290  0.49163535    -0.15100
C1285       C  0.97894918  0.73107864  0.50050276     0.35600
C1286       C  0.02619169  0.75260371  0.50099621    -0.26400
C1287       C  0.04738064  0.72885797  0.49307953    -0.15700
C1288       C  0.02100152  0.68479923  0.48072722     0.36600
N1289       N  0.04161471  0.66091761  0.46968439    -0.89900
H1290       H  0.95466298  0.62847248  0.47238500     0.17800
H1291       H  0.04590973  0.78667955  0.01426470     0.17800
N1292       N  0.95915957  0.75544460  0.01682949    -0.89000
H1293       H  0.02888481  0.63120152  0.48259238     0.35100
H1294       H  0.03206991  0.65174948  0.44648879     0.40200
H1295       H  0.93941872  0.73843101  0.03642882     0.39800
H1296       H  0.93870924  0.75616937  0.99969358     0.34700
C1297       C  0.73289497  0.75922257  0.50664366    -0.27000
C1298       C  0.68580243  0.72889481  0.50797762    -0.15100
C1299       C  0.66927121  0.68203167  0.50757951     0.35600
C1300       C  0.69906460  0.66677291  0.50521466    -0.26400
C1301       C  0.74591028  0.69661147  0.50411653    -0.15700
C1302       C  0.76316679  0.74372842  0.50497951     0.36600
N1303       N  0.81054217  0.77663732  0.50381922    -0.89900
H1304       H  0.74646678  0.79533734  0.50731817     0.17800
H1305       H  0.68501164  0.63053362  0.50474504     0.17800
N1306       N  0.62207893  0.64926576  0.50979362    -0.89000
H1307       H  0.81811931  0.79527868  0.98350302     0.35100
H1308       H  0.83066914  0.76148599  0.00265112     0.40200
H1309       H  0.61668434  0.62991495  0.52972955     0.39800
H1310       H  0.61257426  0.62759400  0.49053392     0.34700
C1311       C  0.83205446  0.38889527  0.01960692    -0.27000
C1312       C  0.79242303  0.35293300  0.00648648    -0.15100
C1313       C  0.75689598  0.35894429  0.50119098     0.35600
C1314       C  0.76226367  0.40148665  0.50498052    -0.26400
C1315       C  0.80276399  0.43875759  0.01523357    -0.15700
C1316       C  0.83769361  0.43188429  0.02397376     0.36600
N1317       N  0.87914317  0.46872048  0.03626623    -0.89900
H1318       H  0.85975808  0.38427213  0.02466059     0.17800
H1319       H  0.73456812  0.40548718  0.49879321     0.17800
N1320       N  0.71415998  0.32264643  0.49065088    -0.89000
H1321       H  0.90137698  0.45810039  0.04123694     0.35100
H1322       H  0.87175865  0.47833614  0.05755409     0.40200
H1323       H  0.70302910  0.29578259  0.50611486     0.39800
H1324       H  0.71772682  0.31257327  0.46838820     0.34700
C1325       C  0.58300887  0.37469693  0.48138587    -0.27000
C1326       C  0.55141375  0.37115535  0.00236842    -0.15100
C1327       C  0.56498366  0.40450943  0.02542308     0.35600
C1328       C  0.60921419  0.44190376  0.02475989    -0.26400
C1329       C  0.63971654  0.44616676  0.00138911    -0.15700
C1330       C  0.62703382  0.41123710  0.48045994     0.36600
N1331       N  0.65714105  0.41252029  0.45695217    -0.89900
H1332       H  0.57220368  0.34751229  0.46449733     0.17800
H1333       H  0.61972712  0.46788670  0.04248626     0.17800
N1334       N  0.53461510  0.39931455  0.04997517    -0.89000
H1335       H  0.64068448  0.38473846  0.44193453     0.35100
H1336       H  0.68192619  0.40950663  0.46825191     0.40200
H1337       H  0.50831848  0.40106624  0.03996643     0.39800
H1338       H  0.55045441  0.42621842  0.06577342     0.34700
C1339       C  0.47185430  0.30145655  0.60764186    -0.27000
C1340       C  0.42703317  0.27952508  0.59752286    -0.15100
C1341       C  0.39618509  0.28587227  0.61498935     0.35600
C1342       C  0.41110833  0.31433753  0.64123145    -0.26400
C1343       C  0.45627718  0.33704884  0.65098844    -0.15700
C1344       C  0.48663225  0.32970228  0.63403933     0.36600
N1345       N  0.53262557  0.35063464  0.64325353    -0.89900
H1346       H  0.49600038  0.29690804  0.59483219     0.17800
H1347       H  0.38698216  0.31914220  0.65383467     0.17800
N1348       N  0.34990142  0.26527187  0.60629674    -0.89000
H1349       H  0.55274177  0.37019062  0.62473319     0.35100
H1350       H  0.53942079  0.32512005  0.64739876     0.40200
H1351       H  0.33468091  0.23020064  0.60710468     0.39800
H1352       H  0.34818733  0.27504989  0.58357854     0.34700
C1353       C  0.42907985  0.32655102  0.86834860    -0.27000
C1354       C  0.46855973  0.33906635  0.85149902    -0.15100
C1355       C  0.49769090  0.32535839  0.86201381     0.35600
C1356       C  0.48828777  0.30227406  0.89011168    -0.26400
C1357       C  0.45020914  0.29192265  0.90793786    -0.15700
C1358       C  0.41934693  0.30274142  0.89641267     0.36600
N1359       N  0.37906369  0.29065557  0.91339251    -0.89900
H1360       H  0.40612071  0.33626366  0.85998606     0.17800
H1361       H  0.51190160  0.29345486  0.89845560     0.17800
N1362       N  0.53671083  0.33481251  0.84439549    -0.89000
H1363       H  0.35885861  0.25535858  0.91336341     0.35100
H1364       H  0.36071598  0.30238435  0.90200853     0.40200
H1365       H  0.52545434  0.31640694  0.82356622     0.39800
H1366       H  0.55504222  0.32323559  0.85593676     0.34700
C1367       C  0.72486945  0.56487446  0.62016513    -0.27000
C1368       C  0.71953352  0.59176530  0.59841707    -0.15100
C1369       C  0.68565643  0.60185513  0.60307211     0.35600
C1370       C  0.65827492  0.58526668  0.62949547    -0.26400
C1371       C  0.66331993  0.55816768  0.65109881    -0.15700
C1372       C  0.69670746  0.54749855  0.64622060     0.36600
N1373       N  0.70335523  0.52003563  0.66757574    -0.89900
H1374       H  0.75020302  0.55624709  0.61641206     0.17800
H1375       H  0.63274547  0.59361013  0.63329350     0.17800
N1376       N  0.67926890  0.62903236  0.58103708    -0.89000
H1377       H  0.67377301  0.48833065  0.66862298     0.35100
H1378       H  0.70977992  0.53514398  0.68965369     0.40200
H1379       H  0.70821949  0.66138097  0.58131842     0.39800
H1380       H  0.65263435  0.63283252  0.58776768     0.34700
C1381       C  0.69356973  0.58970792  0.86466215    -0.27000
C1382       C  0.67213202  0.54681510  0.85013363    -0.15100
C1383       C  0.67833368  0.51279889  0.86264105     0.35600
C1384       C  0.70434732  0.52217423  0.88977229    -0.26400
C1385       C  0.72323739  0.56420003  0.90485753    -0.15700
C1386       C  0.71843048  0.59843230  0.89209380     0.36600
N1387       N  0.73721150  0.64127533  0.90789171    -0.89900
H1388       H  0.68988496  0.61643901  0.85542766     0.17800
H1389       H  0.70748542  0.49567942  0.90034490     0.17800
N1390       N  0.65723380  0.46858339  0.84859214    -0.89000
H1391       H  0.73010092  0.66281098  0.89575879     0.35100
H1392       H  0.77215533  0.65657195  0.90781920     0.40200
H1393       H  0.62264400  0.45279216  0.85244041     0.39800
H1394       H  0.66728013  0.44864863  0.85976995     0.34700
C1395       C  0.52156778  0.67290915  0.64813478    -0.27000
C1396       C  0.55357670  0.66515831  0.66123858    -0.15100
C1397       C  0.59777112  0.68838785  0.64850865     0.35600
C1398       C  0.60759643  0.71596589  0.62202043    -0.26400
C1399       C  0.57469842  0.72141503  0.60779062    -0.15700
C1400       C  0.53134843  0.70037516  0.62188549     0.36600
N1401       N  0.49619701  0.70605053  0.61026492    -0.89900
H1402       H  0.48804062  0.65664862  0.65787499     0.17800
H1403       H  0.64076938  0.73183949  0.61169574     0.17800
N1404       N  0.63244955  0.68312056  0.66181201    -0.89000
H1405       H  0.48514482  0.68973384  0.58874750     0.35100
H1406       H  0.50861877  0.74060711  0.60784164     0.40200
H1407       H  0.64048079  0.69918712  0.68356154     0.39800
H1408       H  0.66184902  0.69993493  0.64852923     0.34700
C1409       C  0.58549335  0.65159294  0.88175418    -0.27000
C1410       C  0.55068716  0.64651130  0.86232021    -0.15100
C1411       C  0.52704848  0.66762906  0.87068794     0.35600
C1412       C  0.53803758  0.69274325  0.89820698    -0.26400
C1413       C  0.57174326  0.69683518  0.91804878    -0.15700
C1414       C  0.59585396  0.67619915  0.90993388     0.36600
N1415       N  0.63104711  0.68107237  0.92985479    -0.89900
H1416       H  0.60397765  0.63563354  0.87523629     0.17800
H1417       H  0.51922606  0.70841420  0.90448063     0.17800
N1418       N  0.49243798  0.66452005  0.85108750    -0.89000
H1419       H  0.64574719  0.66399609  0.92038328     0.35100
H1420       H  0.61616721  0.66508132  0.95076088     0.40200
H1421       H  0.50142593  0.69727388  0.84477299     0.39800
H1422       H  0.46273697  0.65037568  0.86400574     0.34700
C1423       C  0.31408225  0.46848446  0.61636817    -0.27000
C1424       C  0.28023278  0.42351739  0.60892151    -0.15100
C1425       C  0.27299405  0.38871369  0.62943584     0.35600
C1426       C  0.30133398  0.39929522  0.65553051    -0.26400
C1427       C  0.33658008  0.44391958  0.66183280    -0.15700
C1428       C  0.34249008  0.47897057  0.64220815     0.36600
N1429       N  0.37839309  0.52488708  0.64772987    -0.89900
H1430       H  0.31993405  0.49582663  0.60116939     0.17800
H1431       H  0.29600706  0.37232855  0.67090491     0.17800
N1432       N  0.23775916  0.34273965  0.62346782    -0.89000
H1433       H  0.37761008  0.54671198  0.63143971     0.35100
H1434       H  0.40872431  0.52629043  0.64419428     0.40200
H1435       H  0.20718273  0.34118296  0.62572110     0.39800
H1436       H  0.23772964  0.32116943  0.64036267     0.34700
C1437       C  0.35224511  0.46499139  0.91707815    -0.27000
C1438       C  0.31260485  0.42294810  0.92212235    -0.15100
C1439       C  0.29701150  0.38985060  0.89851407     0.35600
C1440       C  0.32061499  0.39951781  0.87017670    -0.26400
C1441       C  0.35900258  0.44240293  0.86449046    -0.15700
C1442       C  0.37516182  0.47540188  0.88841252     0.36600
N1443       N  0.41515634  0.51902348  0.88387108    -0.89900
H1444       H  0.36429043  0.49076068  0.93509880     0.17800
H1445       H  0.30817491  0.37361560  0.85223854     0.17800
N1446       N  0.25752539  0.34626558  0.90337580    -0.89000
H1447       H  0.42428426  0.53793407  0.90450425     0.35100
H1448       H  0.40735903  0.53659715  0.86799874     0.40200
H1449       H  0.26635026  0.32196451  0.90083751     0.39800
H1450       H  0.23433753  0.34072989  0.88588678     0.34700
C1451       C  0.83860072  0.52034845  0.60175126    -0.27000
C1452       C  0.86118936  0.56648090  0.59401706    -0.15100
C1453       C  0.89768401  0.59784093  0.61268723     0.35600
C1454       C  0.91001072  0.58229961  0.63864937    -0.26400
C1455       C  0.88758218  0.53601556  0.64637547    -0.15700
C1456       C  0.85137245  0.50479533  0.62723612     0.36600
N1457       N  0.82664290  0.45713061  0.63259209    -0.89900
H1458       H  0.81068256  0.49561062  0.58763708     0.17800
H1459       H  0.93801361  0.60688561  0.65273336     0.17800
N1460       N  0.92242889  0.64524394  0.60530545    -0.89000
H1461       H  0.81201834  0.45092425  0.65468272     0.35100
H1462       H  0.84853919  0.44526524  0.63082135     0.40200
H1463       H  0.93984102  0.64913026  0.58459785     0.39800
H1464       H  0.94689627  0.66384180  0.62223595     0.34700
C1465       C  0.81396993  0.48875677  0.88970708    -0.27000
C1466       C  0.84062202  0.52627744  0.90915815    -0.15100
C1467       C  0.88453343  0.55917701  0.89941273     0.35600
C1468       C  0.90073405  0.55328342  0.87084873    -0.26400
C1469       C  0.87399672  0.51570077  0.85152988    -0.15700
C1470       C  0.82981406  0.48336079  0.86096132     0.36600
N1471       N  0.80064854  0.44559125  0.84122090    -0.89900
H1472       H  0.78009210  0.46349214  0.89671467     0.17800
H1473       H  0.93463608  0.57826006  0.86367402     0.17800
N1474       N  0.91273883  0.59825011  0.91841509    -0.89000
H1475       H  0.79433870  0.45854328  0.82119220     0.35100
H1476       H  0.76964773  0.42470544  0.85183606     0.40200
H1477       H  0.89880398  0.61856372  0.91838382     0.39800
H1478       H  0.94473990  0.61772448  0.90862755     0.34700
C1479       C  0.94388535  0.35142576  0.62074287    -0.27000
C1480       C  0.91105837  0.34777485  0.64161457    -0.15100
C1481       C  0.86531075  0.31845177  0.63468640     0.35600
C1482       C  0.85301880  0.29289324  0.60719905    -0.26400
C1483       C  0.88575774  0.29652646  0.58638274    -0.15700
C1484       C  0.93167960  0.32615919  0.59300117     0.36600
N1485       N  0.96551566  0.32872708  0.57243028    -0.89900
H1486       H  0.97918238  0.37394254  0.62612402     0.17800
H1487       H  0.81765990  0.26992207  0.60211716     0.17800
N1488       N  0.83132938  0.31314560  0.65604420    -0.89000
H1489       H  0.99770518  0.35021586  0.58177454     0.35100
H1490       H  0.96429939  0.34368159  0.55183525     0.40200
H1491       H  0.81233688  0.27915773  0.66250252     0.39800
H1492       H  0.81009838  0.32102188  0.64434191     0.34700
C1493       C  0.92420073  0.33374244  0.86989036    -0.27000
C1494       C  0.91294670  0.36377389  0.85737683    -0.15100
C1495       C  0.89366523  0.38210229  0.87694093     0.35600
C1496       C  0.88267451  0.36699890  0.90782625    -0.26400
C1497       C  0.89159191  0.33498291  0.91954301    -0.15700
C1498       C  0.91347236  0.31909946  0.90073555     0.36600
N1499       N  0.92362590  0.28703965  0.91265354    -0.89900
H1500       H  0.93993070  0.32023625  0.85538022     0.17800
H1501       H  0.86560385  0.37893465  0.92245790     0.17800
N1502       N  0.88535377  0.41585938  0.86551032    -0.89000
H1503       H  0.95837861  0.30108493  0.91080499     0.35100
H1504       H  0.90764012  0.25812149  0.89862069     0.40200
H1505       H  0.91653481  0.44475870  0.86058497     0.39800
H1506       H  0.87056528  0.42527313  0.88275939     0.34700
C1507       C  0.16607967  0.48694002  0.59952042    -0.27000
C1508       C  0.15500007  0.44166755  0.59610318    -0.15100
C1509       C  0.12994152  0.41075264  0.62009998     0.35600
C1510       C  0.11646535  0.42555384  0.64616436    -0.26400
C1511       C  0.12637859  0.47030173  0.64906341    -0.15700
C1512       C  0.15177263  0.50130072  0.62545765     0.36600
N1513       N  0.16185412  0.54691391  0.62700843    -0.89900
H1514       H  0.18517939  0.51141733  0.58157031     0.17800
H1515       H  0.09705071  0.40133148  0.66418054     0.17800
N1516       N  0.11756434  0.36424316  0.61801011    -0.89000
H1517       H  0.14840599  0.55290890  0.60724585     0.35100
H1518       H  0.19679191  0.56855619  0.62625009     0.40200
H1519       H  0.09302678  0.34881049  0.60070620     0.39800
H1520       H  0.10228399  0.34709294  0.63863024     0.34700
C1521       C  0.18903705  0.47709316  0.87455406    -0.27000
C1522       C  0.16168153  0.44623400  0.89774869    -0.15100
C1523       C  0.11462105  0.42258959  0.89407594     0.35600
C1524       C  0.09616144  0.43346015  0.86895688    -0.26400
C1525       C  0.12389485  0.46690628  0.84732744    -0.15700
C1526       C  0.17084627  0.48746566  0.84958924     0.36600
N1527       N  0.20104284  0.51780348  0.82644735    -0.89900
H1528       H  0.22534151  0.49469854  0.87610617     0.17800
H1529       H  0.05997256  0.41612936  0.86641239     0.17800
N1530       N  0.08586799  0.38775996  0.91557798    -0.89000
H1531       H  0.20001052  0.54730387  0.82667767     0.35100
H1532       H  0.19095926  0.50218451  0.80462440     0.40200
H1533       H  0.09279864  0.36200805  0.91373586     0.39800
H1534       H  0.05213350  0.37333866  0.90918971     0.34700
C1535       C  0.17089398  0.71726045  0.62026281    -0.27000
C1536       C  0.14590445  0.73335217  0.60587381    -0.15100
C1537       C  0.10592093  0.72518916  0.61994687     0.35600
C1538       C  0.08971412  0.69742584  0.64639611    -0.26400
C1539       C  0.11235764  0.67726104  0.65887013    -0.15700
C1540       C  0.15443524  0.68888570  0.64601280     0.36600
N1541       N  0.18056946  0.67112638  0.65743282    -0.89900
H1542       H  0.20225612  0.72411569  0.60999653     0.17800
H1543       H  0.05816222  0.69015610  0.65631959     0.17800
N1544       N  0.08037776  0.74237205  0.60623832    -0.89000
H1545       H  0.16218383  0.63599906  0.65483947     0.35100
H1546       H  0.18789592  0.67989022  0.68096037     0.40200
H1547       H  0.09939282  0.77756760  0.60834494     0.39800
H1548       H  0.05065454  0.73150345  0.61872036     0.34700
C1549       C  0.11666223  0.64596458  0.91153784    -0.27000
C1550       C  0.11753433  0.68609101  0.91771711    -0.15100
C1551       C  0.10286528  0.70456417  0.89485369     0.35600
C1552       C  0.08971232  0.68328760  0.86569134    -0.26400
C1553       C  0.09170800  0.64474045  0.85891346    -0.15700
C1554       C  0.10457676  0.62539414  0.88219400     0.36600
N1555       N  0.10491743  0.58477482  0.87617036    -0.89900
H1556       H  0.12832609  0.63215767  0.92908874     0.17800
H1557       H  0.07882348  0.69755797  0.84796101     0.17800
N1558       N  0.10106205  0.74452648  0.90032685    -0.89000
H1559       H  0.11178001  0.57321784  0.89654962     0.35100
H1560       H  0.13176680  0.59324116  0.86113905     0.40200
H1561       H  0.10962045  0.75590450  0.92328908     0.39800
H1562       H  0.06761736  0.73546142  0.89767534     0.34700
C1563       C  0.30368713  0.82647336  0.60395752    -0.27000
C1564       C  0.28805608  0.85266883  0.59077108    -0.15100
C1565       C  0.30213771  0.89558387  0.60386205     0.35600
C1566       C  0.33132803  0.91115013  0.62933191    -0.26400
C1567       C  0.34727283  0.88516089  0.64250016    -0.15700
C1568       C  0.33271017  0.84192468  0.62981946     0.36600
N1569       N  0.34677803  0.81352777  0.64320178    -0.89900
H1570       H  0.29305808  0.79355979  0.59401999     0.17800
H1571       H  0.34212019  0.94445078  0.63861380     0.17800
N1572       N  0.28909625  0.92508492  0.59113766    -0.89000
H1573       H  0.33428168  0.78356830  0.63033606     0.35100
H1574       H  0.33217763  0.80406853  0.66525986     0.40200
H1575       H  0.25417161  0.90942117  0.59283531     0.39800
H1576       H  0.29859735  0.93092679  0.56775148     0.34700
C1577       C  0.28926376  0.81408726  0.87239498    -0.27000
C1578       C  0.29201985  0.84264637  0.89704895    -0.15100
C1579       C  0.31645139  0.88969421  0.89241848     0.35600
C1580       C  0.34094253  0.90721936  0.86467876    -0.26400
C1581       C  0.34072342  0.87868057  0.84131982    -0.15700
C1582       C  0.31298323  0.83145327  0.84475166     0.36600
N1583       N  0.30699124  0.80026332  0.82041069    -0.89900
H1584       H  0.26928256  0.77760950  0.87475308     0.17800
H1585       H  0.36139334  0.94336765  0.86162725     0.17800
N1586       N  0.31715497  0.91952273  0.91594988    -0.89000
H1587       H  0.33708421  0.80149963  0.81665754     0.35100
H1588       H  0.29764058  0.80955377  0.80001541     0.40200
H1589       H  0.28454948  0.91315751  0.91802271     0.39800
H1590       H  0.33746951  0.95328622  0.90910572     0.34700
C1591       C  0.53090823  0.84522718  0.60246543    -0.27000
C1592       C  0.57549105  0.85862744  0.59512528    -0.15100
C1593       C  0.61055851  0.89063369  0.61481546     0.35600
C1594       C  0.60026699  0.90788666  0.64078934    -0.26400
C1595       C  0.55589903  0.89501454  0.64774606    -0.15700
C1596       C  0.52076421  0.86347515  0.62821464     0.36600
N1597       N  0.47508198  0.85090774  0.63399550    -0.89900
H1598       H  0.50369988  0.82116265  0.58759221     0.17800
H1599       H  0.62761782  0.93194831  0.65554345     0.17800
N1600       N  0.65709777  0.90745064  0.60893064    -0.89000
H1601       H  0.45329050  0.82675936  0.61774973     0.35100
H1602       H  0.47316309  0.87961149  0.63052383     0.40200
H1603       H  0.66578300  0.92326555  0.58725250     0.39800
H1604       H  0.66237065  0.88044980  0.60916665     0.34700
C1605       C  0.57953747  0.90169979  0.90136674    -0.27000
C1606       C  0.55741862  0.85447327  0.90292832    -0.15100
C1607       C  0.52843511  0.82823822  0.87772240     0.35600
C1608       C  0.52229736  0.84985697  0.85252334    -0.26400
C1609       C  0.54486747  0.89683971  0.85091902    -0.15700
C1610       C  0.57364310  0.92319252  0.87564393     0.36600
N1611       N  0.59588449  0.97165305  0.87504967    -0.89900
H1612       H  0.60066182  0.92191270  0.92056009     0.17800
H1613       H  0.50048517  0.82972925  0.83348144     0.17800
N1614       N  0.50503239  0.77958256  0.87751910    -0.89000
H1615       H  0.61577671  0.98595411  0.89476874     0.35100
H1616       H  0.57096468  0.97989036  0.87593047     0.40200
H1617       H  0.52924902  0.77092725  0.87428547     0.39800
H1618       H  0.48312280  0.76584432  0.85852450     0.34700
C1619       C  0.66423228  0.14825427  0.62791973    -0.27000
C1620       C  0.66458409  0.11661327  0.64781073    -0.15100
C1621       C  0.69203287  0.09893347  0.64012263     0.35600
C1622       C  0.71711620  0.11234953  0.61246987    -0.26400
C1623       C  0.71617901  0.14341276  0.59230824    -0.15700
C1624       C  0.68973291  0.16188103  0.60043249     0.36600
N1625       N  0.68865535  0.19467235  0.58100978    -0.89900
H1626       H  0.64365293  0.16225170  0.63340897     0.17800
H1627       H  0.73739994  0.09812230  0.60659611     0.17800
N1628       N  0.69445236  0.06727997  0.66021268    -0.89000
H1629       H  0.69971563  0.22410960  0.59417254     0.35100
H1630       H  0.65528393  0.18214709  0.57462105     0.40200
H1631       H  0.71073402  0.08462542  0.68065031     0.39800
H1632       H  0.71436190  0.05607654  0.65038221     0.34700
C1633       C  0.67612819  0.16558341  0.89778006    -0.27000
C1634       C  0.70776293  0.15347138  0.90426605    -0.15100
C1635       C  0.71186086  0.12361515  0.88434946     0.35600
C1636       C  0.68432526  0.10691538  0.85780937    -0.26400
C1637       C  0.65306879  0.11974692  0.85100018    -0.15700
C1638       C  0.64852846  0.14875753  0.87165436     0.36600
N1639       N  0.61526760  0.16038949  0.86693395    -0.89900
H1640       H  0.67199699  0.18765368  0.91359529     0.17800
H1641       H  0.68777134  0.08427602  0.84219070     0.17800
N1642       N  0.74434530  0.11122613  0.89073061    -0.89000
H1643       H  0.59413706  0.14992528  0.88639854     0.35100
H1644       H  0.63159250  0.19559965  0.86556136     0.40200
H1645       H  0.77626908  0.14053971  0.88920974     0.39800
H1646       H  0.74295317  0.08884575  0.87372429     0.34700
C1647       C  0.47719235  0.15280587  0.59582447    -0.27000
C1648       C  0.43583591  0.15075851  0.59487866    -0.15100
C1649       C  0.40722537  0.13449955  0.62107825     0.35600
C1650       C  0.41856818  0.11690824  0.64626627    -0.26400
C1651       C  0.45862770  0.11681255  0.64645463    -0.15700
C1652       C  0.48892275  0.13602601  0.62141792     0.36600
N1653       N  0.53042990  0.13668870  0.62144558    -0.89900
H1654       H  0.49961566  0.16563369  0.57597271     0.17800
H1655       H  0.39590100  0.10305816  0.66593802     0.17800
N1656       N  0.36662201  0.13551995  0.62197370    -0.89000
H1657       H  0.54892011  0.15209452  0.60128113     0.35100
H1658       H  0.52246466  0.10315075  0.62076547     0.40200
H1659       H  0.37592101  0.16947339  0.62184808     0.39800
H1660       H  0.34924782  0.12187172  0.64280166     0.34700
C1661       C  0.48179063  0.15247753  0.85540449    -0.27000
C1662       C  0.44889822  0.10795402  0.84724315    -0.15100
C1663       C  0.41153292  0.08368232  0.86764760     0.35600
C1664       C  0.40930089  0.10357746  0.89557512    -0.26400
C1665       C  0.44333405  0.14737161  0.90426564    -0.15700
C1666       C  0.47975450  0.17235740  0.88347278     0.36600
N1667       N  0.51565655  0.21735916  0.89118871    -0.89900
H1668       H  0.51032033  0.17177263  0.84014336     0.17800
H1669       H  0.38106356  0.08391875  0.91102741     0.17800
N1670       N  0.37589344  0.03830226  0.86168490    -0.89000
H1671       H  0.53788056  0.23207385  0.87249956     0.35100
H1672       H  0.53414726  0.21445027  0.90904058     0.40200
H1673       H  0.38976354  0.01832491  0.85839528     0.39800
H1674       H  0.35835564  0.03798533  0.84195350     0.34700
loop_ 
_geom_bond_atom_site_label_1 
_geom_bond_atom_site_label_2 
_geom_bond_distance 
_geom_bond_site_symmetry_2 
_ccdc_geom_bond_type 
C1           N19   1.360       .  A
C1           C38   1.464       .  S
C1          C825   1.498       .  S
N2           N19   1.328       .  A
N2           N24   1.318       .  A
N2          Co39   2.109       .  S
C3           N28   1.343       .  A
C3           C41   1.471       .  S
C3           H48   1.079       .  S
H4           C45   1.080       .  S
C5           N29   1.340       .  A
C5            C9   1.454       .  S
C5           H34   1.081       .  S
Co6          N24   2.073   1_565  S
Co6          N14   2.086       .  S
Co6          N46   2.078   1_565  S
Co6          N22   2.084       .  S
Co6         Cl50   2.446   1_565  S
N7           C45   1.335       .  A
N7           N14   1.318       .  A
N7           Co8   2.071       .  S
Co8          N11   2.100       .  S
Co8          N28   2.095       .  S
Co8          N15   2.073       .  S
Co8         Cl50   2.454   1_565  S
C9           N47   1.354       .  A
C9          C772   1.477       .  S
N10          N17   1.318       .  A
N10          N40   1.321       .  A
N10         Co43   2.067       .  S
N11          N29   1.319       .  A
N11          N47   1.326       .  A
N12          C41   1.352       .  A
N12          N22   1.323       .  A
H13          C38   1.076       .  S
N14          N35   1.326       .  A
N15          N33   1.317       .  A
N15          N20   1.324       .  A
C16          N20   1.349       .  A
C16          C44   1.463       .  S
C16         C758   1.482       .  S
N17          C32   1.339       .  A
N17         Co39   2.082       .  S
C18          N46   1.336       .  A
C18          C21   1.455       .  S
C18          H52   1.082       .  S
C21          N42   1.350       .  A
C21         C814   1.471       .  S
N22          N28   1.319       .  A
N23          C49   1.346       .  A
N23          N25   1.320       .  A
N23         Co39   2.100       .  S
N24          C38   1.336       .  A
N25          N53   1.319       .  A
N25         Co43   2.068       .  S
H26          C49   1.081       .  S
H27          C44   1.081       .  S
N29         Co43   2.072   1_565  S
N30          N42   1.326       .  A
N30          N46   1.320       .  A
N30         Co39   2.085       .  S
C31          N35   1.351       .  A
C31          C45   1.457       .  S
C31         C744   1.474       .  S
C32          C51   1.467       .  S
C32          H36   1.080       .  S
N33          C44   1.338       .  A
N33         Co43   2.081   1_565  S
C37          N53   1.345       .  A
C37          C49   1.469       .  S
C37         C783   1.483       .  S
Co39        Cl50   2.459       .  S
N40          C51   1.346       .  A
C41         C730   1.495       .  S
Co43        Cl50   2.442       .  S
C51         C800   1.478       .  S
C54          N72   1.352       .  A
C54          C91   1.455       .  S
C54         C716   1.479       .  S
N55          N72   1.325       .  A
N55          N77   1.321       .  A
N55         Co92   2.100       .  S
C56          N81   1.341       .  A
C56          C94   1.472       .  S
C56         H101   1.077       .  S
H57          C98   1.081       .  S
C58          N82   1.339       .  A
C58          C62   1.455       .  S
C58          H87   1.080       .  S
Co59         N77   2.072   1_655  S
Co59         N67   2.077       .  S
Co59         N99   2.066   1_655  S
Co59         N75   2.075       .  S
Co59       Cl103   2.440   1_655  S
N60          C98   1.338       .  A
N60          N67   1.317       .  A
N60         Co61   2.074       .  S
Co61         N64   2.086       .  S
Co61         N81   2.081       .  S
Co61         N68   2.087       .  S
Co61       Cl103   2.458   1_655  S
C62         N100   1.350       .  A
C62         C657   1.480       .  S
N63          N70   1.318       .  A
N63          N93   1.320       .  A
N63         Co96   2.054       .  S
N64          N82   1.319       .  A
N64         N100   1.326       .  A
N65          C94   1.350       .  A
N65          N75   1.318       .  A
H66          C91   1.081       .  S
N67          N88   1.323       .  A
N68          N86   1.318       .  A
N68          N73   1.326       .  A
C69          N73   1.351       .  A
C69          C97   1.447       .  S
C69         C643   1.465       .  S
N70          C85   1.341       .  A
N70         Co92   2.092       .  S
C71          N99   1.334       .  A
C71          C74   1.458       .  S
C71         H105   1.080       .  S
C74          N95   1.356       .  A
C74         C702   1.489       .  S
N75          N81   1.317       .  A
N76         C102   1.351       .  A
N76          N78   1.320       .  A
N76         Co92   2.113       .  S
N77          C91   1.338       .  A
N78         N106   1.320       .  A
N78         Co96   2.081       .  S
H79         C102   1.080       .  S
H80          C97   1.081       .  S
N82         Co96   2.081   1_655  S
N83          N95   1.326       .  A
N83          N99   1.318       .  A
N83         Co92   2.096       .  S
C84          N88   1.350       .  A
C84          C98   1.460       .  S
C84         C632   1.477       .  S
C85         C104   1.463       .  S
C85          H89   1.080       .  S
N86          C97   1.333       .  A
N86         Co96   2.055   1_655  S
C90         N106   1.348       .  A
C90         C102   1.478       .  S
C90         C674   1.499       .  S
Co92       Cl103   2.458       .  S
N93         C104   1.340       .  A
C94         C618   1.489       .  S
Co96       Cl103   2.442       .  S
C104        C688   1.466       .  S
C107        N125   1.354       .  A
C107        C144   1.459       .  S
C107        C604   1.487       .  S
N108        N125   1.327       .  A
N108        N130   1.321       .  A
N108       Co145   2.109       .  S
C109        N134   1.343       .  A
C109        C147   1.472       .  S
C109        H154   1.079       .  S
H110        C151   1.079       .  S
C111        N135   1.332       .  A
C111        C115   1.452       .  S
C111        H140   1.082       .  S
Co112       N130   2.084       .  S
Co112       N120   2.077       .  S
Co112       N152   2.077       .  S
Co112       N128   2.082       .  S
Co112      Cl156   2.445       .  S
N113        C151   1.336       .  A
N113        N120   1.318       .  A
N113       Co114   2.072       .  S
Co114       N117   2.096       .  S
Co114       N134   2.096       .  S
Co114       N121   2.084       .  S
Co114      Cl156   2.467       .  S
C115        N153   1.354       .  A
C115        C545   1.475       .  S
N116        N123   1.319       .  A
N116        N146   1.323       .  A
N116       Co149   2.067       .  S
N117        N135   1.318       .  A
N117        N153   1.328       .  A
N118        C147   1.351       .  A
N118        N128   1.323       .  A
H119        C144   1.081       .  S
N120        N141   1.320       .  A
N121        N139   1.319       .  A
N121        N126   1.326       .  A
C122        N126   1.352       .  A
C122        C150   1.447       .  S
C122        C534   1.465       .  S
N123        C138   1.341       .  A
N123       Co145   2.096       .  S
C124        N152   1.338       .  A
C124        C127   1.459       .  S
C124        H158   1.081       .  S
C127        N148   1.358       .  A
C127        C590   1.494       .  S
N128        N134   1.319       .  A
N129        C155   1.354       .  A
N129        N131   1.319       .  A
N129       Co145   2.127       .  S
N130        C144   1.343       .  A
N131        N159   1.320       .  A
N131       Co149   2.064       .  S
H132        C155   1.081       .  S
H133        C150   1.081       .  S
N135       Co149   2.059       .  S
N136        N148   1.328       .  A
N136        N152   1.321       .  A
N136       Co145   2.108       .  S
C137        N141   1.349       .  A
C137        C151   1.463       .  S
C137        C517   1.476       .  S
C138        C157   1.466       .  S
C138        H142   1.080       .  S
N139        C150   1.330       .  A
N139       Co149   2.057       .  S
C143        N159   1.342       .  A
C143        C155   1.483       .  S
C143        C559   1.503       .  S
Co145      Cl156   2.464       .  S
N146        C157   1.346       .  A
C147        C506   1.494       .  S
Co149      Cl156   2.433       .  S
C157        C573   1.479       .  S
O160        C168   1.289       .  A
O160       Co180   2.076       .  S
O161        C169   1.257       .  A
O161       Co181   1.969       .  S
O162        C170   1.248       .  A
O162      Co1019   1.983       .  S
O163       C1008   1.258   1_554  A
O163       Co183   1.960       .  S
O164        C170   1.258       .  A
O164       Co181   2.009       .  S
O165        C171   1.268       .  A
O165       Co180   1.995       .  S
O166        C169   1.259       .  A
O166       Co183   1.981       .  S
O167        C168   1.268       .  A
O167       Co182   1.932       .  S
C168        C478   1.486       .  S
C169        C531   1.465       .  S
C170        C615   1.483       .  S
C171        C492   1.472       .  S
C171       O1000   1.258       .  A
O172        C185   1.253       .  A
O172       Co180   2.004       .  S
O173        C186   1.275       .  A
O173       Co181   1.988       .  S
O174        C187   1.292       .  A
O174       Co182   2.086       .  S
O175        C188   1.249   1_556  A
O175       Co183   1.947   1_556  S
O176        C188   1.272       .  A
O176       Co181   2.048       .  S
O177        C187   1.265       .  A
O177       Co180   1.912       .  S
O178        C185   1.253       .  A
O178      Co1020   1.976       .  S
O179       C1023   1.279       .  A
O179       Co182   2.009       .  S
Co180      O1021   2.039       .  S
Co181       O184   2.112       .  S
Co182       O999   1.984       .  S
Co182      O1021   2.014       .  S
Co183      O1015   1.988   1_554  S
Co183       O184   2.061       .  S
O184      Co1017   2.040   1_554  S
O184      Co1019   2.016       .  S
C185        C548   1.467       .  S
C186        C447   1.492   1_554  S
C186       O1016   1.279       .  A
C187        C629   1.484       .  S
C188        C464   1.487       .  S
O189        C197   1.308       .  A
O189       Co209   2.104       .  S
O190        C198   1.259       .  A
O190       Co210   1.970       .  S
O191        C199   1.252       .  A
O191      Co1048   1.999   1_554  S
O192       C1037   1.297   1_554  A
O192       Co212   2.083   1_554  S
O193        C199   1.261       .  A
O193       Co210   2.001       .  S
O194        C200   1.268       .  A
O194       Co209   1.896       .  S
O195        C198   1.258       .  A
O195       Co212   1.974   1_554  S
O196        C197   1.271       .  A
O196       Co211   1.880       .  S
C197        C433   1.479       .  S
C198        C646   1.462       .  S
C199        C786   1.489       .  S
C200        C475   1.486       .  S
C200       O1029   1.298       .  A
O201        C214   1.286       .  A
O201       Co209   2.068       .  S
O202        C215   1.279       .  A
O202       Co210   2.001       .  S
O203        C216   1.258       .  A
O203       Co211   1.987       .  S
O204        C217   1.265       .  A
O204       Co212   1.982       .  S
O205        C217   1.275   1_554  A
O205       Co210   2.031       .  S
O206        C216   1.252       .  A
O206       Co209   1.958       .  S
O207        C214   1.270       .  A
O207      Co1049   1.927       .  S
O208       C1052   1.278       .  A
O208       Co211   1.999       .  S
Co209      O1050   2.088       .  S
Co210       O213   2.065   1_554  S
Co211      O1028   1.995       .  S
Co211      O1050   1.861       .  S
Co212      O1044   1.925       .  S
Co212       O213   2.004       .  S
O213      Co1046   2.088       .  S
O213      Co1048   1.860       .  S
C214        C660   1.465       .  S
C215        C408   1.483   1_554  S
C215       O1045   1.275       .  A
C216        C797   1.465       .  S
C217        C422   1.496       .  S
O218        C226   1.290       .  A
O218       Co238   2.104       .  S
O219        C227   1.268       .  A
O219       Co239   2.030       .  S
O220        C228   1.270       .  A
O220      Co1077   1.977   1_554  S
O221       C1066   1.259   1_554  A
O221       Co241   1.995       .  S
O222        C228   1.279       .  A
O222       Co239   2.033       .  S
O223        C229   1.260       .  A
O223       Co238   2.012       .  S
O224        C227   1.249       .  A
O224       Co241   1.946       .  S
O225        C226   1.259       .  A
O225       Co240   1.897       .  S
C226        C394   1.485       .  S
C227        C699   1.477       .  S
C228        C727   1.492       .  S
C229        C377   1.482       .  S
C229       O1058   1.249       .  A
O230        C243   1.265       .  A
O230       Co238   1.965       .  S
O231        C244   1.266       .  A
O231       Co239   1.994   1_556  S
O232        C245   1.300       .  A
O232       Co240   2.117       .  S
O233        C246   1.275       .  A
O233       Co241   2.012       .  S
O234        C246   1.272       .  A
O234       Co239   1.987       .  S
O235        C245   1.264       .  A
O235       Co238   1.872       .  S
O236        C243   1.278       .  A
O236      Co1078   2.025       .  S
O237       C1081   1.253       .  A
O237       Co240   1.963       .  S
Co238      O1079   2.010       .  S
Co239       O242   2.065   1_554  S
Co240      O1057   1.965       .  S
Co240      O1079   1.979       .  S
Co241      O1073   2.024   1_554  S
Co241       O242   2.035   1_554  S
O242      Co1077   1.952       .  S
O242      Co1075   2.028       .  S
C243        C713   1.468       .  S
C244        C363   1.477       .  S
C244       O1074   1.257   1_556  A
C245        C741   1.486       .  S
C246        C450   1.486   1_554  S
O247        C255   1.264       .  A
O247       Co267   1.898       .  S
O248        C256   1.248       .  A
O248       Co268   1.951       .  S
O249        C257   1.250       .  A
O249       Co269   1.992       .  S
O250        C258   1.269       .  A
O250       Co270   2.002       .  S
O251       C1094   1.259   1_554  A
O251       Co268   2.002       .  S
O252        C258   1.268       .  A
O252      Co1104   1.981       .  S
O253        C256   1.277       .  A
O253       Co270   2.063       .  S
O254        C255   1.292       .  A
O254       Co269   2.099       .  S
C255        C391   1.483       .  S
C256        C562   1.501       .  S
C257        C352   1.473       .  S
C257       O1088   1.252       .  A
C258        C755   1.491       .  S
O259       C1109   1.264       .  A
O259       Co267   1.986       .  S
O260        C273   1.282       .  A
O260      Co1105   2.037       .  S
O261        C274   1.255       .  A
O261       Co269   1.873       .  S
O262        C275   1.268       .  A
O262       Co270   1.982       .  S
O263        C275   1.272       .  A
O263       Co268   2.010       .  S
O264        C274   1.301       .  A
O264       Co267   2.128       .  S
O265        C272   1.269       .  A
O265       Co270   1.992       .  S
O266        C273   1.267       .  A
O266       Co269   1.957       .  S
Co267      O1089   1.973       .  S
Co267      O1108   2.007       .  S
Co268      O1097   2.048   1_554  S
Co268       O271   2.052       .  S
Co269      O1108   2.007       .  S
Co270       O271   2.069       .  S
O271      Co1104   1.981       .  S
O271      Co1106   2.012   1_554  S
C272        C405   1.474   1_554  S
C272       O1096   1.268       .  A
C273        C576   1.468       .  S
C274        C769   1.489       .  S
C275        C461   1.496       .  S
O276        C284   1.307       .  A
O276       Co296   2.144       .  S
O277        C285   1.276       .  A
O277       Co297   2.013       .  S
O278        C286   1.266       .  A
O278       Co298   1.970       .  S
O279        C287   1.270       .  A
O279       Co299   2.016       .  S
O280        C286   1.279       .  A
O280      Co1134   2.032       .  S
O281       C1124   1.262       .  A
O281       Co296   1.987       .  S
O282        C285   1.274       .  A
O282       Co299   1.992       .  S
O283        C284   1.259       .  A
O283       Co298   1.839       .  S
C284        C685   1.484       .  S
C285        C338   1.488       .  S
C286        C601   1.485       .  S
C287        C419   1.501   1_554  S
C287       O1118   1.260       .  A
O288        C301   1.267       .  A
O288      Co1133   1.980   1_554  S
O289       C1139   1.248   1_554  A
O289       Co297   1.949       .  S
O290        C303   1.291       .  A
O290       Co298   2.111       .  S
O291        C304   1.274       .  A
O291       Co299   2.049       .  S
O292        C304   1.249       .  A
O292       Co297   1.946       .  S
O293        C303   1.263       .  A
O293       Co296   1.894       .  S
O294        C301   1.281       .  A
O294       Co299   2.036       .  S
O295        C302   1.259       .  A
O295       Co298   2.002       .  S
Co296      O1125   1.971       .  S
Co296      O1137   1.996       .  S
Co297      O1117   2.040   1_554  S
Co297       O300   2.004       .  S
Co298      O1137   1.990       .  S
Co299       O300   2.063       .  S
O300      Co1133   1.991   1_554  S
O300      Co1135   1.994   1_554  S
C301        C671   1.496       .  S
C302        C349   1.471       .  S
C302       O1126   1.254       .  A
C303        C380   1.468       .  S
C304        C587   1.495       .  S
O305        C313   1.274       .  A
O305       Co325   1.955       .  S
O306        C314   1.261       .  A
O306       Co326   1.986       .  S
O307        C315   1.281       .  A
O307       Co327   2.005       .  S
O308        C316   1.272       .  A
O308       Co328   2.005       .  S
O309       C1152   1.273       .  A
O309       Co326   1.921       .  S
O310        C316   1.264       .  A
O310      Co1162   1.973   1_554  S
O311        C314   1.264       .  A
O311       Co328   2.008       .  S
O312        C313   1.279       .  A
O312       Co327   2.026       .  S
C313        C436   1.487       .  S
C314        C503   1.490       .  S
C315        C489   1.448       .  S
C315       O1146   1.272       .  A
C316        C811   1.481       .  S
O317       C1167   1.271       .  A
O317       Co325   1.972       .  S
O318        C331   1.261       .  A
O318      Co1163   1.988       .  S
O319        C332   1.257       .  A
O319       Co327   1.984       .  S
O320        C333   1.280       .  A
O320       Co328   2.013       .  S
O321        C333   1.276       .  A
O321       Co326   1.992       .  S
O322        C332   1.261       .  A
O322       Co325   1.994       .  S
O323        C330   1.276       .  A
O323       Co328   2.009       .  S
O324        C331   1.254       .  A
O324       Co327   1.946       .  S
Co325      O1147   1.968       .  S
Co325      O1166   1.934       .  S
Co326      O1155   1.994   1_554  S
Co326       O329   1.916   1_554  S
Co327      O1166   2.098       .  S
Co328       O329   2.052   1_554  S
O329      Co1162   1.934       .  S
O329      Co1164   2.095       .  S
C330        C366   1.481   1_554  S
C330       O1154   1.268       .  A
C331        C520   1.470       .  S
C332        C828   1.490       .  S
C333        C335   1.492       .  S
C334        H341   1.085       .  S
C334        C335   1.402   1_556  A
C334        C339   1.396       .  A
C335        C336   1.419       .  A
C336        C337   1.414       .  A
C336        N343   1.431       .  S
C337        H342   1.084       .  S
C337        C338   1.408       .  A
C338        C339   1.409   1_554  A
C339        N340   1.429       .  S
N340        H344   1.046       .  S
N340        H345   1.045       .  S
N343        H346   1.045       .  S
N343        H347   1.045       .  S
C348        H355   1.084       .  S
C348        C349   1.401       .  A
C348        C353   1.399       .  A
C349       C1187   1.409       .  A
C350        C351   1.391       .  A
C350       C1186   1.413   1_554  A
C350        N357   1.433       .  S
C351        H356   1.084       .  S
C351       C1189   1.395   1_554  A
C352        C353   1.411       .  A
C352       C1188   1.402       .  A
C353        N354   1.430       .  S
N354        H358   1.045       .  S
N354        H359   1.045       .  S
N357        H360   1.045       .  S
N357        H361   1.046       .  S
C362        H369   1.083       .  S
C362        C363   1.409       .  A
C362        C367   1.413   1_565  A
C363        C364   1.418       .  A
C364        C365   1.380   1_565  A
C364       N1208   1.436       .  S
C365       H1207   1.085       .  S
C365        C366   1.403       .  A
C366        C367   1.411       .  A
C367        N368   1.436   1_556  S
N368        H372   1.044       .  S
N368        H373   1.047   1_554  S
H370       C1202   1.085       .  S
N371       C1201   1.435       .  S
N371       H1211   1.041       .  S
N371       H1212   1.045       .  S
H374       N1208   1.041       .  S
H375       N1208   1.045   1_554  S
C376        H383   1.084       .  S
C376        C377   1.405       .  A
C376        C381   1.406       .  A
C377        C378   1.423       .  A
C378        C379   1.394       .  A
C378        N385   1.434       .  S
C379        H384   1.084       .  S
C379        C380   1.397       .  A
C380        C381   1.409       .  A
C381        N382   1.438       .  S
N382        H386   1.045       .  S
N382        H387   1.047       .  S
N385       H1225   1.039       .  S
N385       H1226   1.052       .  S
H388       N1222   1.041       .  S
H389       N1222   1.050       .  S
C390        H397   1.084       .  S
C390        C395   1.389       .  A
C390       C1228   1.403       .  A
C391        C392   1.414       .  A
C391       C1227   1.405       .  A
C392        C393   1.404       .  A
C392        N399   1.438       .  S
C393        H398   1.084       .  S
C393        C394   1.408       .  A
C394       C1232   1.417       .  A
C395       C1231   1.414       .  A
C395        N396   1.432       .  S
N396        H400   1.040       .  S
N396        H401   1.050       .  S
N399        H402   1.046       .  S
N399        H403   1.045       .  S
C404        H411   1.083       .  S
C404        C409   1.403   1_565  A
C404       C1242   1.401       .  A
C405        C406   1.412   1_556  A
C405       C1241   1.398       .  A
C406        C407   1.413   1_565  A
C406        N413   1.438       .  S
C407        H412   1.083       .  S
C407        C408   1.406   1_554  A
C408       C1246   1.414       .  A
C409       C1245   1.414       .  A
C409        N410   1.438       .  S
N410        H414   1.042       .  S
N410        H415   1.048       .  S
N413        H416   1.043       .  S
N413        H417   1.047       .  S
C418        H425   1.083   1_556  S
C418        C419   1.410       .  A
C418        C423   1.421   1_455  A
C419        C420   1.417       .  A
C420        C421   1.400   1_455  A
C420       N1264   1.434       .  S
C421        H426   1.083       .  S
C421        C422   1.403       .  A
C422        C423   1.414       .  A
C423        N424   1.436   1_556  S
N424        H428   1.046       .  S
N424        H429   1.045   1_554  S
N427       C1257   1.434       .  S
N427        H430   1.046       .  S
N427        H431   1.044       .  S
C432        H439   1.083       .  S
C432        C433   1.398       .  A
C432        C437   1.401       .  A
C433       C1271   1.414       .  A
C434        C435   1.410       .  A
C434       C1270   1.417   1_554  A
C434        N441   1.437       .  S
C435        H440   1.083       .  S
C435       C1273   1.401   1_554  A
C436        C437   1.418       .  A
C436       C1272   1.402       .  A
C437        N438   1.434       .  S
N438        H442   1.046       .  S
N438        H443   1.046       .  S
N441        H444   1.046       .  S
N441        H445   1.045       .  S
C446        H453   1.084       .  S
C446        C447   1.404       .  A
C446        C451   1.397   1_655  A
C447        C448   1.420   1_556  A
C448        C449   1.410   1_655  A
C448       N1292   1.431       .  S
C449       H1291   1.084       .  S
C449        C450   1.406   1_554  A
C450        C451   1.409       .  A
C451        N452   1.431       .  S
N452        H456   1.046       .  S
N452        H457   1.045       .  S
H454       C1286   1.084       .  S
N455       C1285   1.431       .  S
N455        H458   1.047       .  S
N455        H459   1.043       .  S
C460        H467   1.083       .  S
C460        C461   1.413       .  A
C460        C465   1.415       .  A
C461        C462   1.414       .  A
C462        C463   1.395       .  A
C462        N469   1.434       .  S
C463        H468   1.084       .  S
C463        C464   1.404       .  A
C464        C465   1.416       .  A
C465        N466   1.437       .  S
N466       H1307   1.045   1_554  S
N466       H1308   1.043       .  S
N469        H472   1.046       .  S
N469        H473   1.045   1_554  S
H470       N1303   1.044       .  S
H471       N1303   1.045       .  S
C474        H481   1.084       .  S
C474        C475   1.406       .  A
C474        C479   1.412       .  A
C475       C1313   1.416       .  A
C476        C477   1.396       .  A
C476       C1312   1.415       .  A
C476        N483   1.431   1_554  S
C477        H482   1.083   1_554  S
C477       C1315   1.403       .  A
C478        C479   1.413       .  A
C478       C1314   1.402       .  A
C479        N480   1.437       .  S
N480        H484   1.047       .  S
N480        H485   1.044       .  S
N483        H486   1.050   1_556  S
N483        H487   1.039       .  S
C488        H495   1.085       .  S
C488        C493   1.394       .  A
C488       C1326   1.401   1_556  A
C489        C490   1.398       .  A
C489       C1325   1.399       .  A
C490        C491   1.403       .  A
C490        N497   1.437       .  S
C491        H496   1.083       .  S
C491        C492   1.413       .  A
C492       C1330   1.414       .  A
C493       C1329   1.415   1_556  A
C493        N494   1.440       .  S
N494        H498   1.047       .  S
N494        H499   1.044       .  S
N497        H500   1.046       .  S
N497        H501   1.045       .  S
C502        H509   1.084       .  S
C502        C503   1.405       .  A
C502        C507   1.406       .  A
C503        C504   1.419       .  A
C504        C505   1.401       .  A
C504        N511   1.433       .  S
C505        H510   1.084       .  S
C505        C506   1.407       .  A
C506        C507   1.413       .  A
C507        N508   1.430       .  S
N508        H512   1.045       .  S
N508        H513   1.047       .  S
N511        H514   1.044       .  S
N511        H515   1.046       .  S
C516        H523   1.083       .  S
C516        C517   1.408       .  A
C516        C521   1.402       .  A
C517        C518   1.411       .  A
C518        C519   1.394       .  A
C518        N525   1.437       .  S
C519        H524   1.083       .  S
C519        C520   1.405       .  A
C520        C521   1.407       .  A
C521        N522   1.438       .  S
N522        H526   1.047       .  S
N522        H527   1.044       .  S
N525        H528   1.047       .  S
N525        H529   1.044       .  S
C530        H537   1.084       .  S
C530        C531   1.404       .  A
C530        C535   1.398       .  A
C531        C532   1.409       .  A
C532        C533   1.397       .  A
C532        N539   1.439       .  S
C533        H538   1.084       .  S
C533        C534   1.403       .  A
C534        C535   1.411       .  A
C535        N536   1.432       .  S
N536        H540   1.044       .  S
N536        H541   1.047       .  S
N539        H542   1.044       .  S
N539        H543   1.047       .  S
C544        H551   1.083       .  S
C544        C545   1.402       .  A
C544        C549   1.395       .  A
C545        C546   1.413       .  A
C546        C547   1.411       .  A
C546        N553   1.437       .  S
C547        H552   1.084       .  S
C547        C548   1.404       .  A
C548        C549   1.407       .  A
C549        N550   1.438       .  S
N550        H554   1.045       .  S
N550        H555   1.044       .  S
N553        H556   1.046       .  S
N553        H557   1.045       .  S
C558        H565   1.083       .  S
C558        C559   1.401       .  A
C558        C563   1.405       .  A
C559        C560   1.425       .  A
C560        C561   1.413       .  A
C560        N567   1.438       .  S
C561        H566   1.084       .  S
C561        C562   1.402       .  A
C562        C563   1.426       .  A
C563        N564   1.433       .  S
N564        H568   1.044       .  S
N564        H569   1.045       .  S
N567        H570   1.047       .  S
N567        H571   1.045       .  S
C572        H579   1.084       .  S
C572        C573   1.410       .  A
C572        C577   1.411       .  A
C573        C574   1.407       .  A
C574        C575   1.397       .  A
C574        N581   1.432       .  S
C575        H580   1.083       .  S
C575        C576   1.400       .  A
C576        C577   1.402       .  A
C577        N578   1.434       .  S
N578        H582   1.044       .  S
N578        H583   1.043       .  S
N581        H584   1.045       .  S
N581        H585   1.044       .  S
C586        H593   1.084       .  S
C586        C587   1.412       .  A
C586        C591   1.406       .  A
C587        C588   1.410       .  A
C588        C589   1.411       .  A
C588        N595   1.437       .  S
C589        H594   1.081       .  S
C589        C590   1.411       .  A
C590        C591   1.411       .  A
C591        N592   1.439       .  S
N592        H596   1.046       .  S
N592        H597   1.046       .  S
N595        H598   1.045       .  S
N595        H599   1.046       .  S
C600        H607   1.083       .  S
C600        C601   1.406       .  A
C600        C605   1.406       .  A
C601        C602   1.407       .  A
C602        C603   1.410       .  A
C602        N609   1.432       .  S
C603        H608   1.084       .  S
C603        C604   1.408       .  A
C604        C605   1.412       .  A
C605        N606   1.438       .  S
N606        H610   1.046       .  S
N606        H611   1.044       .  S
N609        H612   1.044       .  S
N609        H613   1.047       .  S
C614        H621   1.084       .  S
C614        C615   1.406       .  A
C614        C619   1.396       .  A
C615        C616   1.411       .  A
C616        C617   1.402       .  A
C616        N623   1.438       .  S
C617        H622   1.083       .  S
C617        C618   1.409       .  A
C618        C619   1.417       .  A
C619        N620   1.429       .  S
N620        H624   1.043       .  S
N620        H625   1.047       .  S
N623        H626   1.045       .  S
N623        H627   1.047       .  S
C628        H635   1.083       .  S
C628        C629   1.407       .  A
C628        C633   1.402       .  A
C629        C630   1.414       .  A
C630        C631   1.404       .  A
C630        N637   1.437       .  S
C631        H636   1.084       .  S
C631        C632   1.403       .  A
C632        C633   1.411       .  A
C633        N634   1.437       .  S
N634        H638   1.038       .  S
N634        H639   1.054       .  S
N637        H640   1.045       .  S
N637        H641   1.047       .  S
C642        H649   1.084       .  S
C642        C643   1.405       .  A
C642        C647   1.402       .  A
C643        C644   1.403       .  A
C644        C645   1.397       .  A
C644        N651   1.432       .  S
C645        H650   1.085       .  S
C645        C646   1.403       .  A
C646        C647   1.408       .  A
C647        N648   1.439       .  S
N648        H652   1.040       .  S
N648        H653   1.050       .  S
N651        H654   1.045       .  S
N651        H655   1.046       .  S
C656        H663   1.083       .  S
C656        C657   1.403       .  A
C656        C661   1.399       .  A
C657        C658   1.416       .  A
C658        C659   1.408       .  A
C658        N665   1.437       .  S
C659        H664   1.084       .  S
C659        C660   1.400       .  A
C660        C661   1.404       .  A
C661        N662   1.432       .  S
N662        H666   1.047       .  S
N662        H667   1.045       .  S
N665        H668   1.046       .  S
N665        H669   1.046       .  S
C670        H677   1.084       .  S
C670        C671   1.410       .  A
C670        C675   1.413       .  A
C671        C672   1.413       .  A
C672        C673   1.406       .  A
C672        N679   1.439       .  S
C673        H678   1.083       .  S
C673        C674   1.409       .  A
C674        C675   1.412       .  A
C675        N676   1.431       .  S
N676        H680   1.045       .  S
N676        H681   1.046       .  S
N679        H682   1.045       .  S
N679        H683   1.046       .  S
C684        H691   1.084       .  S
C684        C685   1.410       .  A
C684        C689   1.386       .  A
C685        C686   1.411       .  A
C686        C687   1.411       .  A
C686        N693   1.435       .  S
C687        H692   1.084       .  S
C687        C688   1.407       .  A
C688        C689   1.404       .  A
C689        N690   1.433       .  S
N690        H694   1.044       .  S
N690        H695   1.045       .  S
N693        H696   1.048       .  S
N693        H697   1.044       .  S
C698        H705   1.085       .  S
C698        C699   1.406       .  A
C698        C703   1.397       .  A
C699        C700   1.407       .  A
C700        C701   1.405       .  A
C700        N707   1.438       .  S
C701        H706   1.080       .  S
C701        C702   1.411       .  A
C702        C703   1.416       .  A
C703        N704   1.432       .  S
N704        H708   1.046       .  S
N704        H709   1.044       .  S
N707        H710   1.044       .  S
N707        H711   1.047       .  S
C712        H719   1.084       .  S
C712        C713   1.403       .  A
C712        C717   1.402       .  A
C713        C714   1.412       .  A
C714        C715   1.403       .  A
C714        N721   1.439       .  S
C715        H720   1.084       .  S
C715        C716   1.407       .  A
C716        C717   1.411       .  A
C717        N718   1.438       .  S
N718        H722   1.047       .  S
N718        H723   1.043       .  S
N721        H724   1.046       .  S
N721        H725   1.044       .  S
C726        H733   1.084       .  S
C726        C727   1.406       .  A
C726        C731   1.411       .  A
C727        C728   1.418       .  A
C728        C729   1.398       .  A
C728        N735   1.433       .  S
C729        H734   1.084       .  S
C729        C730   1.406       .  A
C730        C731   1.417       .  A
C731        N732   1.435       .  S
N732        H736   1.045       .  S
N732        H737   1.046       .  S
N735        H738   1.046       .  S
N735        H739   1.044       .  S
C740        H747   1.084       .  S
C740        C741   1.407       .  A
C740        C745   1.391       .  A
C741        C742   1.413       .  A
C742        C743   1.408       .  A
C742        N749   1.434       .  S
C743        H748   1.081       .  S
C743        C744   1.402       .  A
C744        C745   1.412       .  A
C745        N746   1.433       .  S
N746        H750   1.042       .  S
N746        H751   1.044       .  S
N749        H752   1.046       .  S
N749        H753   1.046       .  S
C754        H761   1.083       .  S
C754        C755   1.408       .  A
C754        C759   1.408       .  A
C755        C756   1.422       .  A
C756        C757   1.393       .  A
C756        N763   1.433       .  S
C757        H762   1.083       .  S
C757        C758   1.400       .  A
C758        C759   1.414       .  A
C759        N760   1.438       .  S
N760        H764   1.045       .  S
N760        H765   1.047       .  S
N763        H766   1.045       .  S
N763        H767   1.046       .  S
C768        H775   1.083       .  S
C768        C769   1.405       .  A
C768        C773   1.412       .  A
C769        C770   1.421       .  A
C770        C771   1.400       .  A
C770        N777   1.438       .  S
C771        H776   1.084       .  S
C771        C772   1.395       .  A
C772        C773   1.413       .  A
C773        N774   1.438       .  S
N774        H778   1.041       .  S
N774        H779   1.050       .  S
N777        H780   1.040       .  S
N777        H781   1.051       .  S
C782        H789   1.083       .  S
C782        C783   1.401       .  A
C782        C787   1.407       .  A
C783        C784   1.415       .  A
C784        C785   1.402       .  A
C784        N791   1.438       .  S
C785        H790   1.083       .  S
C785        C786   1.404       .  A
C786        C787   1.420       .  A
C787        N788   1.436       .  S
N788        H792   1.045       .  S
N788        H793   1.043       .  S
N791        H794   1.046       .  S
N791        H795   1.045       .  S
C796        H803   1.085       .  S
C796        C797   1.403       .  A
C796        C801   1.397       .  A
C797        C798   1.402       .  A
C798        C799   1.406       .  A
C798        N805   1.437       .  S
C799        H804   1.083       .  S
C799        C800   1.411       .  A
C800        C801   1.411       .  A
C801        N802   1.438       .  S
N802        H806   1.046       .  S
N802        H807   1.045       .  S
N805        H808   1.047       .  S
N805        H809   1.045       .  S
C810        H817   1.084       .  S
C810        C811   1.409       .  A
C810        C815   1.406       .  A
C811        C812   1.413       .  A
C812        C813   1.401       .  A
C812        N819   1.438       .  S
C813        H818   1.084       .  S
C813        C814   1.400       .  A
C814        C815   1.409       .  A
C815        N816   1.438       .  S
N816        H820   1.047       .  S
N816        H821   1.044       .  S
N819        H822   1.046       .  S
N819        H823   1.045       .  S
C824        H831   1.083       .  S
C824        C825   1.404       .  A
C824        C829   1.407       .  A
C825        C826   1.424       .  A
C826        C827   1.400       .  A
C826        N833   1.428       .  S
C827        H832   1.084       .  S
C827        C828   1.400       .  A
C828        C829   1.419       .  A
C829        N830   1.437       .  S
N830        H834   1.046       .  S
N830        H835   1.043       .  S
N833        H836   1.043       .  S
N833        H837   1.045       .  S
C838        N856   1.361       .  A
C838        C875   1.462       .  S
C838       C1662   1.500       .  S
N839        N856   1.328       .  A
N839        N861   1.317       .  A
N839       Co876   2.117       .  S
C840        N865   1.344       .  A
C840        C878   1.472       .  S
C840        H885   1.080       .  S
H841        C882   1.080       .  S
C842        N866   1.338       .  A
C842        C846   1.453       .  S
C842        H871   1.081       .  S
Co843       N861   2.066   1_565  S
Co843       N851   2.083       .  S
Co843       N883   2.080   1_565  S
Co843       N859   2.069       .  S
Co843      Cl887   2.442   1_565  S
N844        C882   1.336       .  A
N844        N851   1.319       .  A
N844       Co845   2.068       .  S
Co845       N848   2.106       .  S
Co845       N865   2.098       .  S
Co845       N852   2.077       .  S
Co845      Cl887   2.455   1_565  S
C846        N884   1.357       .  A
C846       C1609   1.482       .  S
N847        N854   1.318       .  A
N847        N877   1.319       .  A
N847       Co880   2.062       .  S
N848        N866   1.318       .  A
N848        N884   1.327       .  A
N849        C878   1.347       .  A
N849        N859   1.320       .  A
H850        C875   1.076       .  S
N851        N872   1.324       .  A
N852        N870   1.317       .  A
N852        N857   1.324       .  A
C853        N857   1.350       .  A
C853        C881   1.460       .  S
C853       C1595   1.480       .  S
N854        C869   1.339       .  A
N854       Co876   2.079       .  S
C855        N883   1.337       .  A
C855        C858   1.455       .  S
C855        H889   1.082       .  S
C858        N879   1.351       .  A
C858       C1651   1.474       .  S
N859        N865   1.319       .  A
N860        C886   1.348       .  A
N860        N862   1.320       .  A
N860       Co876   2.109       .  S
N861        C875   1.336       .  A
N862        N890   1.317       .  A
N862       Co880   2.057       .  S
H863        C886   1.081       .  S
H864        C881   1.081       .  S
N866       Co880   2.063   1_565  S
N867        N879   1.327       .  A
N867        N883   1.320       .  A
N867       Co876   2.087       .  S
C868        N872   1.350       .  A
C868        C882   1.456       .  S
C868       C1581   1.471       .  S
C869        C888   1.466       .  S
C869        H873   1.080       .  S
N870        C881   1.338       .  A
N870       Co880   2.076   1_565  S
C874        N890   1.342       .  A
C874        C886   1.474       .  S
C874       C1620   1.486       .  S
Co876      Cl887   2.460       .  S
N877        C888   1.345       .  A
C878       C1567   1.487       .  S
Co880      Cl887   2.439       .  S
C888       C1637   1.475       .  S
C891        N909   1.351       .  A
C891        C928   1.450       .  S
C891       C1553   1.467       .  S
N892        N909   1.324       .  A
N892        N914   1.321       .  A
N892       Co929   2.096       .  S
C893        N918   1.343       .  A
C893        C931   1.476       .  S
C893        H938   1.077       .  S
H894        C935   1.080       .  S
C895        N919   1.339       .  A
C895        C899   1.454       .  S
C895        H924   1.080       .  S
Co896       N914   2.064   1_655  S
Co896       N904   2.082       .  S
Co896       N936   2.069   1_655  S
Co896       N912   2.075       .  S
Co896      Cl940   2.444   1_655  S
N897        C935   1.339       .  A
N897        N904   1.317       .  A
N897       Co898   2.079       .  S
Co898       N901   2.092       .  S
Co898       N918   2.094       .  S
Co898       N905   2.089       .  S
Co898      Cl940   2.457   1_655  S
C899        N937   1.351       .  A
C899       C1494   1.479       .  S
N900        N907   1.317       .  A
N900        N930   1.322       .  A
N900       Co933   2.061       .  S
N901        N919   1.319       .  A
N901        N937   1.325       .  A
N902        C931   1.349       .  A
N902        N912   1.320       .  A
H903        C928   1.081       .  S
N904        N925   1.324       .  A
N905        N923   1.318       .  A
N905        N910   1.326       .  A
C906        N910   1.353       .  A
C906        C934   1.448       .  S
C906       C1480   1.469       .  S
N907        C922   1.341       .  A
N907       Co929   2.091       .  S
C908        N936   1.336       .  A
C908        C911   1.459       .  S
C908        H942   1.081       .  S
C911        N932   1.354       .  A
C911       C1539   1.487       .  S
N912        N918   1.318       .  A
N913        C939   1.352       .  A
N913        N915   1.320       .  A
N913       Co929   2.116       .  S
N914        C928   1.337       .  A
N915        N943   1.319       .  A
N915       Co933   2.074       .  S
H916        C939   1.081       .  S
H917        C934   1.081       .  S
N919       Co933   2.075   1_655  S
N920        N932   1.324       .  A
N920        N936   1.318       .  A
N920       Co929   2.091       .  S
C921        N925   1.351       .  A
C921        C935   1.463       .  S
C921       C1469   1.484       .  S
C922        C941   1.465       .  S
C922        H926   1.080       .  S
N923        C934   1.333       .  A
N923       Co933   2.057   1_655  S
C927        N943   1.345       .  A
C927        C939   1.478       .  S
C927       C1511   1.494       .  S
Co929      Cl940   2.455       .  S
N930        C941   1.344       .  A
C931       C1455   1.495       .  S
Co933      Cl940   2.443       .  S
C941       C1525   1.473       .  S
C944        N962   1.356       .  A
C944        C981   1.457       .  S
C944       C1441   1.489       .  S
N945        N962   1.329       .  A
N945        N967   1.320       .  A
N945       Co982   2.113       .  S
C946        N971   1.342       .  A
C946        C984   1.472       .  S
C946        H991   1.079       .  S
H947        C988   1.080       .  S
C948        N972   1.334       .  A
C948        C952   1.459       .  S
C948        H977   1.080       .  S
Co949       N967   2.081       .  S
Co949       N957   2.067       .  S
Co949       N989   2.072       .  S
Co949       N965   2.082       .  S
Co949      Cl993   2.446       .  S
N950        C988   1.339       .  A
N950        N957   1.319       .  A
N950       Co951   2.080       .  S
Co951       N954   2.097       .  S
Co951       N971   2.098       .  S
Co951       N958   2.094       .  S
Co951      Cl993   2.467       .  S
C952        N990   1.356       .  A
C952       C1382   1.489       .  S
N953        N960   1.319       .  A
N953        N983   1.324       .  A
N953       Co986   2.074       .  S
N954        N972   1.317       .  A
N954        N990   1.327       .  A
N955        C984   1.351       .  A
N955        N965   1.323       .  A
H956        C981   1.081       .  S
N957        N978   1.319       .  A
N958        N976   1.320       .  A
N958        N963   1.329       .  A
C959        N963   1.354       .  A
C959        C987   1.449       .  S
C959       C1371   1.472       .  S
N960        C975   1.339       .  A
N960       Co982   2.087       .  S
C961        N989   1.338       .  A
C961        C964   1.456       .  S
C961        H995   1.081       .  S
C964        N985   1.356       .  A
C964       C1427   1.487       .  S
N965        N971   1.320       .  A
N966        C992   1.352       .  A
N966        N968   1.320       .  A
N966       Co982   2.123       .  S
N967        C981   1.341       .  A
N968        N996   1.321       .  A
N968       Co986   2.070       .  S
H969        C992   1.081       .  S
H970        C987   1.081       .  S
N972       Co986   2.065       .  S
N973        N985   1.327       .  A
N973        N989   1.320       .  A
N973       Co982   2.104       .  S
C974        N978   1.345       .  A
C974        C988   1.465       .  S
C974       C1354   1.473       .  S
C975        C994   1.462       .  S
C975        H979   1.081       .  S
N976        C987   1.332       .  A
N976       Co986   2.067       .  S
C980        N996   1.344       .  A
C980        C992   1.481       .  S
C980       C1396   1.501       .  S
Co982      Cl993   2.464       .  S
N983        C994   1.348       .  A
C984       C1343   1.495       .  S
Co986      Cl993   2.436       .  S
C994       C1410   1.476       .  S
O997       C1005   1.289       .  A
O997      Co1017   2.073   1_554  S
O998       C1006   1.259       .  A
O998      Co1018   1.981       .  S
O999       C1007   1.249       .  A
O1000     Co1020   1.955       .  S
O1001      C1007   1.260       .  A
O1001     Co1018   2.014       .  S
O1002      C1008   1.267       .  A
O1002     Co1017   1.998       .  S
O1003      C1006   1.257       .  A
O1003     Co1020   1.978       .  S
O1004      C1005   1.268       .  A
O1004     Co1019   1.931       .  S
C1005      C1315   1.485       .  S
C1006      C1368   1.474       .  S
C1007      C1452   1.487       .  S
C1008      C1329   1.477   1_556  S
O1009      C1022   1.252       .  A
O1009     Co1017   1.996       .  S
O1010      C1023   1.277       .  A
O1010     Co1018   1.996       .  S
O1011      C1024   1.292       .  A
O1011     Co1019   2.089   1_556  S
O1012      C1025   1.247       .  A
O1012     Co1020   1.945       .  S
O1013      C1025   1.274       .  A
O1013     Co1018   2.058       .  S
O1014      C1024   1.264       .  A
O1014     Co1017   1.913       .  S
O1015      C1022   1.254       .  A
O1016     Co1019   2.010       .  S
Co1018     O1021   2.108       .  S
Co1020     O1021   2.056       .  S
C1022      C1385   1.461       .  S
C1023      C1284   1.496       .  S
C1024      C1466   1.487       .  S
C1025      C1301   1.491       .  S
O1026      C1034   1.309       .  A
O1026     Co1046   2.112       .  S
O1027      C1035   1.261       .  A
O1027     Co1047   1.975       .  S
O1028      C1036   1.250       .  A
O1029     Co1049   2.090       .  S
O1030      C1036   1.261       .  A
O1030     Co1047   2.004       .  S
O1031      C1037   1.270       .  A
O1031     Co1046   1.898       .  S
O1032      C1035   1.261       .  A
O1032     Co1049   1.979       .  S
O1033      C1034   1.267       .  A
O1033     Co1048   1.876       .  S
C1034      C1270   1.482       .  S
C1035      C1483   1.463       .  S
C1036      C1623   1.486       .  S
C1037      C1312   1.483   1_556  S
O1038      C1051   1.287       .  A
O1038     Co1046   2.073       .  S
O1039      C1052   1.280       .  A
O1039     Co1047   2.004       .  S
O1040      C1053   1.259       .  A
O1040     Co1048   1.983       .  S
O1041      C1054   1.265       .  A
O1041     Co1049   1.983       .  S
O1042      C1054   1.275       .  A
O1042     Co1047   2.031       .  S
O1043      C1053   1.254       .  A
O1043     Co1046   1.956       .  S
O1044      C1051   1.268       .  A
O1045     Co1048   1.992   1_554  S
Co1047     O1050   2.067       .  S
Co1049     O1050   2.009       .  S
C1051      C1497   1.464       .  S
C1052      C1245   1.489       .  S
C1053      C1634   1.463       .  S
C1054      C1259   1.495       .  S
O1055      C1063   1.293       .  A
O1055     Co1075   2.080       .  S
O1056      C1064   1.270       .  A
O1056     Co1076   2.031       .  S
O1057      C1065   1.267       .  A
O1058     Co1078   1.962       .  S
O1059      C1065   1.281       .  A
O1059     Co1076   2.035       .  S
O1060      C1066   1.241       .  A
O1060     Co1075   1.935       .  S
O1061      C1064   1.251       .  A
O1061     Co1078   1.939       .  S
O1062      C1063   1.264       .  A
O1062     Co1077   1.876       .  S
C1063      C1231   1.474       .  S
C1064      C1536   1.478       .  S
C1065      C1564   1.481       .  S
C1066      C1214   1.456       .  S
O1067      C1080   1.257       .  A
O1067     Co1075   1.941       .  S
O1068      C1081   1.265       .  A
O1068     Co1076   2.004       .  S
O1069      C1082   1.278       .  A
O1069     Co1077   2.081       .  S
O1070      C1083   1.277       .  A
O1070     Co1078   2.016       .  S
O1071      C1083   1.272       .  A
O1071     Co1076   1.989       .  S
O1072      C1082   1.232       .  A
O1072     Co1075   1.888       .  S
O1073      C1080   1.276       .  A
O1074     Co1077   1.961   1_554  S
Co1076     O1079   2.061       .  S
Co1078     O1079   1.993       .  S
C1080      C1550   1.459       .  S
C1081      C1200   1.484       .  S
C1082      C1578   1.486       .  S
C1083      C1287   1.489       .  S
O1084      C1092   1.268   1_554  A
O1084     Co1104   1.877       .  S
O1085      C1093   1.250       .  A
O1085     Co1105   1.944       .  S
O1086      C1094   1.233       .  A
O1086     Co1106   1.924       .  S
O1087      C1095   1.271       .  A
O1087     Co1107   2.007       .  S
O1088     Co1105   1.979       .  S
O1089      C1095   1.265       .  A
O1090      C1093   1.279       .  A
O1090     Co1107   2.061       .  S
O1091      C1092   1.297       .  A
O1091     Co1106   2.084       .  S
C1092      C1228   1.474       .  S
C1093      C1399   1.498       .  S
C1094      C1189   1.456       .  S
C1095      C1592   1.487       .  S
O1096     Co1104   1.984       .  S
O1097      C1110   1.281       .  A
O1098      C1111   1.226       .  A
O1098     Co1106   1.876       .  S
O1099      C1112   1.267       .  A
O1099     Co1107   1.981       .  S
O1100      C1112   1.275       .  A
O1100     Co1105   2.022       .  S
O1101      C1111   1.283       .  A
O1101     Co1104   2.102   1_556  S
O1102      C1109   1.268       .  A
O1102     Co1107   2.001       .  S
O1103      C1110   1.258       .  A
O1103     Co1106   1.934       .  S
Co1105     O1108   2.012       .  S
Co1107     O1108   2.069       .  S
C1109      C1242   1.483       .  S
C1110      C1413   1.467       .  S
C1111      C1606   1.498       .  S
C1112      C1298   1.501       .  S
O1113      C1121   1.308       .  A
O1113     Co1133   2.143       .  S
O1114      C1122   1.278       .  A
O1114     Co1134   2.022       .  S
O1115      C1123   1.265       .  A
O1115     Co1135   1.964       .  S
O1116      C1124   1.271       .  A
O1116     Co1136   2.021       .  S
O1117      C1123   1.280       .  A
O1118     Co1133   1.982   1_554  S
O1119      C1122   1.275       .  A
O1119     Co1136   1.997       .  S
O1120      C1121   1.260       .  A
O1120     Co1135   1.850       .  S
C1121      C1522   1.485       .  S
C1122      C1175   1.497       .  S
C1123      C1438   1.485       .  S
C1124      C1256   1.505       .  S
O1125      C1138   1.267       .  A
O1126     Co1134   1.969       .  S
O1127      C1140   1.289       .  A
O1127     Co1135   2.108       .  S
O1128      C1141   1.274       .  A
O1128     Co1136   2.048       .  S
O1129      C1141   1.251       .  A
O1129     Co1134   1.946       .  S
O1130      C1140   1.261       .  A
O1130     Co1133   1.878       .  S
O1131      C1138   1.282       .  A
O1131     Co1136   2.041       .  S
O1132      C1139   1.258       .  A
O1132     Co1135   1.995       .  S
Co1134     O1137   2.010       .  S
Co1136     O1137   2.066       .  S
C1138      C1508   1.502       .  S
C1139      C1186   1.460       .  S
C1140      C1217   1.454       .  S
C1141      C1424   1.497       .  S
O1142      C1150   1.273       .  A
O1142     Co1162   1.952       .  S
O1143      C1151   1.261       .  A
O1143     Co1163   1.986       .  S
O1144      C1152   1.282       .  A
O1144     Co1164   2.009   1_554  S
O1145      C1153   1.273       .  A
O1145     Co1165   2.013       .  S
O1146     Co1163   1.918       .  S
O1147      C1153   1.262       .  A
O1148      C1151   1.263       .  A
O1148     Co1165   2.008       .  S
O1149      C1150   1.279       .  A
O1149     Co1164   2.025       .  S
C1150      C1273   1.486       .  S
C1151      C1340   1.490       .  S
C1152      C1326   1.454       .  S
C1153      C1648   1.483       .  S
O1154     Co1162   1.961   1_554  S
O1155      C1168   1.262       .  A
O1156      C1169   1.256       .  A
O1156     Co1164   1.982       .  S
O1157      C1170   1.283       .  A
O1157     Co1165   2.023       .  S
O1158      C1170   1.274       .  A
O1158     Co1163   1.991       .  S
O1159      C1169   1.262       .  A
O1159     Co1162   2.000       .  S
O1160      C1167   1.276       .  A
O1160     Co1165   2.007       .  S
O1161      C1168   1.253       .  A
O1161     Co1164   1.939       .  S
Co1163     O1166   1.913       .  S
Co1165     O1166   2.050       .  S
C1167      C1203   1.483       .  S
C1168      C1357   1.472       .  S
C1169      C1665   1.493       .  S
C1170      C1172   1.500       .  S
C1171      H1178   1.084       .  S
C1171      C1172   1.406       .  A
C1171      C1176   1.402       .  A
C1172      C1173   1.419       .  A
C1173      C1174   1.416       .  A
C1173      N1180   1.431       .  S
C1174      H1179   1.083       .  S
C1174      C1175   1.409       .  A
C1175      C1176   1.410       .  A
C1176      N1177   1.431       .  S
N1177      H1181   1.046       .  S
N1177      H1182   1.045       .  S
N1180      H1183   1.045       .  S
N1180      H1184   1.046       .  S
C1185      H1192   1.084       .  S
C1185      C1186   1.398       .  A
C1185      C1190   1.390       .  A
C1187      C1188   1.398       .  A
C1187      N1194   1.433       .  S
C1188      H1193   1.084       .  S
C1189      C1190   1.414       .  A
C1190      N1191   1.434       .  S
N1191      H1195   1.046       .  S
N1191      H1196   1.046       .  S
N1194      H1197   1.045       .  S
N1194      H1198   1.046       .  S
C1199      H1206   1.083       .  S
C1199      C1200   1.409       .  A
C1199      C1204   1.415   1_565  A
C1200      C1201   1.421       .  A
C1201      C1202   1.385   1_565  A
C1202      C1203   1.402       .  A
C1203      C1204   1.413       .  A
C1204      N1205   1.436       .  S
N1205      H1209   1.045       .  S
N1205      H1210   1.046       .  S
C1213      H1220   1.084       .  S
C1213      C1214   1.406       .  A
C1213      C1218   1.397       .  A
C1214      C1215   1.409   1_556  A
C1215      C1216   1.387       .  A
C1215      N1222   1.433       .  S
C1216      H1221   1.084       .  S
C1216      C1217   1.399   1_554  A
C1217      C1218   1.408       .  A
C1218      N1219   1.439       .  S
N1219      H1223   1.045       .  S
N1219      H1224   1.047       .  S
C1227      H1234   1.084       .  S
C1227      C1232   1.397       .  A
C1228      C1229   1.413   1_556  A
C1229      C1230   1.402       .  A
C1229      N1236   1.439       .  S
C1230      H1235   1.084       .  S
C1230      C1231   1.407   1_554  A
C1232      N1233   1.432       .  S
N1233      H1237   1.044       .  S
N1233      H1238   1.046       .  S
N1236      H1239   1.044       .  S
N1236      H1240   1.047       .  S
C1241      H1248   1.083       .  S
C1241      C1246   1.400   1_565  A
C1242      C1243   1.414       .  A
C1243      C1244   1.416   1_565  A
C1243      N1250   1.437       .  S
C1244      H1249   1.083       .  S
C1244      C1245   1.407       .  A
C1246      N1247   1.438       .  S
N1247      H1251   1.045       .  S
N1247      H1252   1.045       .  S
N1250      H1253   1.046       .  S
N1250      H1254   1.045       .  S
C1255      H1262   1.083       .  S
C1255      C1256   1.412       .  A
C1255      C1260   1.423   1_455  A
C1256      C1257   1.418       .  A
C1257      C1258   1.400   1_455  A
C1258      H1263   1.083       .  S
C1258      C1259   1.402       .  A
C1259      C1260   1.414       .  A
C1260      N1261   1.436       .  S
N1261      H1265   1.046       .  S
N1261      H1266   1.045       .  S
N1264      H1267   1.047   1_556  S
N1264      H1268   1.044       .  S
C1269      H1276   1.083       .  S
C1269      C1270   1.398       .  A
C1269      C1274   1.401       .  A
C1271      C1272   1.411       .  A
C1271      N1278   1.437       .  S
C1272      H1277   1.083       .  S
C1273      C1274   1.418       .  A
C1274      N1275   1.434       .  S
N1275      H1279   1.046       .  S
N1275      H1280   1.046       .  S
N1278      H1281   1.044       .  S
N1278      H1282   1.046       .  S
C1283      H1290   1.083       .  S
C1283      C1284   1.406       .  A
C1283      C1288   1.400   1_655  A
C1284      C1285   1.420       .  A
C1285      C1286   1.411   1_655  A
C1286      C1287   1.406       .  A
C1287      C1288   1.409       .  A
C1288      N1289   1.431       .  S
N1289      H1293   1.046       .  S
N1289      H1294   1.045       .  S
N1292      H1295   1.053       .  S
N1292      H1296   1.037   1_554  S
C1297      H1304   1.083       .  S
C1297      C1298   1.415       .  A
C1297      C1302   1.417       .  A
C1298      C1299   1.412       .  A
C1299      C1300   1.397       .  A
C1299      N1306   1.434       .  S
C1300      H1305   1.084       .  S
C1300      C1301   1.406       .  A
C1301      C1302   1.416       .  A
C1302      N1303   1.437       .  S
N1306      H1309   1.046       .  S
N1306      H1310   1.045       .  S
C1311      H1318   1.084       .  S
C1311      C1312   1.406       .  A
C1311      C1316   1.410       .  A
C1313      C1314   1.396       .  A
C1313      N1320   1.430       .  S
C1314      H1319   1.081       .  S
C1315      C1316   1.413       .  A
C1316      N1317   1.437       .  S
N1317      H1321   1.043       .  S
N1317      H1322   1.048       .  S
N1320      H1323   1.043       .  S
N1320      H1324   1.045       .  S
C1325      H1332   1.085       .  S
C1325      C1330   1.390       .  A
C1326      C1327   1.399       .  A
C1327      C1328   1.404       .  A
C1327      N1334   1.437       .  S
C1328      H1333   1.083       .  S
C1328      C1329   1.412       .  A
C1330      N1331   1.440       .  S
N1331      H1335   1.044       .  S
N1331      H1336   1.047       .  S
N1334      H1337   1.046       .  S
N1334      H1338   1.044       .  S
C1339      H1346   1.084       .  S
C1339      C1340   1.404       .  A
C1339      C1344   1.404       .  A
C1340      C1341   1.419       .  A
C1341      C1342   1.403       .  A
C1341      N1348   1.433       .  S
C1342      H1347   1.084       .  S
C1342      C1343   1.408       .  A
C1343      C1344   1.413       .  A
C1344      N1345   1.429       .  S
N1345      H1349   1.045       .  S
N1345      H1350   1.047       .  S
N1348      H1351   1.043       .  S
N1348      H1352   1.048       .  S
C1353      H1360   1.083       .  S
C1353      C1354   1.409       .  A
C1353      C1358   1.403       .  A
C1354      C1355   1.407       .  A
C1355      C1356   1.393       .  A
C1355      N1362   1.438       .  S
C1356      H1361   1.082       .  S
C1356      C1357   1.408       .  A
C1357      C1358   1.407       .  A
C1358      N1359   1.438       .  S
N1359      H1363   1.045       .  S
N1359      H1364   1.046       .  S
N1362      H1365   1.046       .  S
N1362      H1366   1.045       .  S
C1367      H1374   1.084       .  S
C1367      C1368   1.405       .  A
C1367      C1372   1.402       .  A
C1368      C1369   1.413       .  A
C1369      C1370   1.400       .  A
C1369      N1376   1.439       .  S
C1370      H1375   1.084       .  S
C1370      C1371   1.402       .  A
C1371      C1372   1.411       .  A
C1372      N1373   1.432       .  S
N1373      H1377   1.044       .  S
N1373      H1378   1.047       .  S
N1376      H1379   1.046       .  S
N1376      H1380   1.046       .  S
C1381      H1388   1.080       .  S
C1381      C1382   1.410       .  A
C1381      C1386   1.400       .  A
C1382      C1383   1.417       .  A
C1383      C1384   1.408       .  A
C1383      N1390   1.438       .  S
C1384      H1389   1.084       .  S
C1384      C1385   1.401       .  A
C1385      C1386   1.400       .  A
C1386      N1387   1.438       .  S
N1387      H1391   1.046       .  S
N1387      H1392   1.045       .  S
N1390      H1393   1.046       .  S
N1390      H1394   1.046       .  S
C1395      H1402   1.083       .  S
C1395      C1396   1.401       .  A
C1395      C1400   1.403       .  A
C1396      C1397   1.424       .  A
C1397      C1398   1.413       .  A
C1397      N1404   1.438       .  S
C1398      H1403   1.084       .  S
C1398      C1399   1.402       .  A
C1399      C1400   1.426       .  A
C1400      N1401   1.434       .  S
N1401      H1405   1.044       .  S
N1401      H1406   1.046       .  S
N1404      H1407   1.046       .  S
N1404      H1408   1.046       .  S
C1409      H1416   1.084       .  S
C1409      C1410   1.410       .  A
C1409      C1414   1.411       .  A
C1410      C1411   1.406       .  A
C1411      C1412   1.394       .  A
C1411      N1418   1.432       .  S
C1412      H1417   1.083       .  S
C1412      C1413   1.401       .  A
C1413      C1414   1.404       .  A
C1414      N1415   1.435       .  S
N1415      H1419   1.046       .  S
N1415      H1420   1.042       .  S
N1418      H1421   1.046       .  S
N1418      H1422   1.045       .  S
C1423      H1430   1.083       .  S
C1423      C1424   1.413       .  A
C1423      C1428   1.405       .  A
C1424      C1425   1.412       .  A
C1425      C1426   1.412       .  A
C1425      N1432   1.437       .  S
C1426      H1431   1.083       .  S
C1426      C1427   1.409       .  A
C1427      C1428   1.408       .  A
C1428      N1429   1.439       .  S
N1429      H1433   1.046       .  S
N1429      H1434   1.046       .  S
N1432      H1435   1.045       .  S
N1432      H1436   1.046       .  S
C1437      H1444   1.084       .  S
C1437      C1438   1.406       .  A
C1437      C1442   1.409       .  A
C1438      C1439   1.406       .  A
C1439      C1440   1.408       .  A
C1439      N1446   1.432       .  S
C1440      H1445   1.083       .  S
C1440      C1441   1.408       .  A
C1441      C1442   1.413       .  A
C1442      N1443   1.438       .  S
N1443      H1447   1.045       .  S
N1443      H1448   1.045       .  S
N1446      H1449   1.044       .  S
N1446      H1450   1.047       .  S
C1451      H1458   1.084       .  S
C1451      C1452   1.406       .  A
C1451      C1456   1.398       .  A
C1452      C1453   1.412       .  A
C1453      C1454   1.406       .  A
C1453      N1460   1.438       .  S
C1454      H1459   1.083       .  S
C1454      C1455   1.411       .  A
C1455      C1456   1.417       .  A
C1456      N1457   1.429       .  S
N1457      H1461   1.045       .  S
N1457      H1462   1.044       .  S
N1460      H1463   1.045       .  S
N1460      H1464   1.047       .  S
C1465      H1472   1.083       .  S
C1465      C1466   1.407       .  A
C1465      C1470   1.403       .  A
C1466      C1467   1.414       .  A
C1467      C1468   1.407       .  A
C1467      N1474   1.437       .  S
C1468      H1473   1.084       .  S
C1468      C1469   1.406       .  A
C1469      C1470   1.412       .  A
C1470      N1471   1.437       .  S
N1471      H1475   1.050       .  S
N1471      H1476   1.041       .  S
N1474      H1477   1.046       .  S
N1474      H1478   1.045       .  S
C1479      H1486   1.084       .  S
C1479      C1480   1.406       .  A
C1479      C1484   1.403       .  A
C1480      C1481   1.405       .  A
C1481      C1482   1.398       .  A
C1481      N1488   1.432       .  S
C1482      H1487   1.085       .  S
C1482      C1483   1.403       .  A
C1483      C1484   1.408       .  A
C1484      N1485   1.439       .  S
N1485      H1489   1.050       .  S
N1485      H1490   1.041       .  S
N1488      H1491   1.045       .  S
N1488      H1492   1.046       .  S
C1493      H1500   1.084       .  S
C1493      C1494   1.403       .  A
C1493      C1498   1.400       .  A
C1494      C1495   1.415       .  A
C1495      C1496   1.406       .  A
C1495      N1502   1.437       .  S
C1496      H1501   1.084       .  S
C1496      C1497   1.399       .  A
C1497      C1498   1.405       .  A
C1498      N1499   1.432       .  S
N1499      H1503   1.048       .  S
N1499      H1504   1.043       .  S
N1502      H1505   1.046       .  S
N1502      H1506   1.046       .  S
C1507      H1514   1.083       .  S
C1507      C1508   1.414       .  A
C1507      C1512   1.410       .  A
C1508      C1509   1.416       .  A
C1509      C1510   1.408       .  A
C1509      N1516   1.438       .  S
C1510      H1515   1.083       .  S
C1510      C1511   1.408       .  A
C1511      C1512   1.408       .  A
C1512      N1513   1.432       .  S
N1513      H1517   1.045       .  S
N1513      H1518   1.046       .  S
N1516      H1519   1.045       .  S
N1516      H1520   1.046       .  S
C1521      H1528   1.084       .  S
C1521      C1522   1.410       .  A
C1521      C1526   1.391       .  A
C1522      C1523   1.410       .  A
C1523      C1524   1.410       .  A
C1523      N1530   1.435       .  S
C1524      H1529   1.084       .  S
C1524      C1525   1.407       .  A
C1525      C1526   1.408       .  A
C1526      N1527   1.433       .  S
N1527      H1531   1.043       .  S
N1527      H1532   1.045       .  S
N1530      H1533   1.044       .  S
N1530      H1534   1.047       .  S
C1535      H1542   1.085       .  S
C1535      C1536   1.406       .  A
C1535      C1540   1.393       .  A
C1536      C1537   1.407       .  A
C1537      C1538   1.407       .  A
C1537      N1544   1.437       .  S
C1538      H1543   1.080       .  S
C1538      C1539   1.411       .  A
C1539      C1540   1.416       .  A
C1540      N1541   1.433       .  S
N1541      H1545   1.044       .  S
N1541      H1546   1.047       .  S
N1544      H1547   1.044       .  S
N1544      H1548   1.047       .  S
C1549      H1556   1.085       .  S
C1549      C1550   1.401       .  A
C1549      C1554   1.397       .  A
C1550      C1551   1.413       .  A
C1551      C1552   1.400       .  A
C1551      N1558   1.439       .  S
C1552      H1557   1.084       .  S
C1552      C1553   1.404       .  A
C1553      C1554   1.408       .  A
C1554      N1555   1.438       .  S
N1555      H1559   1.045       .  S
N1555      H1560   1.045       .  S
N1558      H1561   1.045       .  S
N1558      H1562   1.045       .  S
C1563      H1570   1.084       .  S
C1563      C1564   1.406       .  A
C1563      C1568   1.407       .  A
C1564      C1565   1.414       .  A
C1565      C1566   1.397       .  A
C1565      N1572   1.433       .  S
C1566      H1571   1.084       .  S
C1566      C1567   1.407       .  A
C1567      C1568   1.413       .  A
C1568      N1569   1.436       .  S
N1569      H1573   1.046       .  S
N1569      H1574   1.045       .  S
N1572      H1575   1.046       .  S
N1572      H1576   1.044       .  S
C1577      H1584   1.084       .  S
C1577      C1578   1.414       .  A
C1577      C1582   1.393       .  A
C1578      C1579   1.406       .  A
C1579      C1580   1.407       .  A
C1579      N1586   1.433       .  S
C1580      H1585   1.079       .  S
C1580      C1581   1.402       .  A
C1581      C1582   1.409       .  A
C1582      N1583   1.434       .  S
N1583      H1587   1.042       .  S
N1583      H1588   1.046       .  S
N1586      H1589   1.044       .  S
N1586      H1590   1.046       .  S
C1591      H1598   1.083       .  S
C1591      C1592   1.408       .  A
C1591      C1596   1.405       .  A
C1592      C1593   1.420       .  A
C1593      C1594   1.395       .  A
C1593      N1600   1.433       .  S
C1594      H1599   1.083       .  S
C1594      C1595   1.402       .  A
C1595      C1596   1.412       .  A
C1596      N1597   1.438       .  S
N1597      H1601   1.047       .  S
N1597      H1602   1.045       .  S
N1600      H1603   1.045       .  S
N1600      H1604   1.046       .  S
C1605      H1612   1.082       .  S
C1605      C1606   1.401       .  A
C1605      C1610   1.412       .  A
C1606      C1607   1.433       .  A
C1607      C1608   1.401       .  A
C1607      N1614   1.440       .  S
C1608      H1613   1.084       .  S
C1608      C1609   1.392       .  A
C1609      C1610   1.416       .  A
C1610      N1611   1.437       .  S
N1611      H1615   1.041       .  S
N1611      H1616   1.050       .  S
N1614      H1617   1.044       .  S
N1614      H1618   1.047       .  S
C1619      H1626   1.083       .  S
C1619      C1620   1.401       .  A
C1619      C1624   1.404       .  A
C1620      C1621   1.420       .  A
C1621      C1622   1.403       .  A
C1621      N1628   1.439       .  S
C1622      H1627   1.083       .  S
C1622      C1623   1.401       .  A
C1623      C1624   1.415       .  A
C1624      N1625   1.432       .  S
N1625      H1629   1.045       .  S
N1625      H1630   1.045       .  S
N1628      H1631   1.046       .  S
N1628      H1632   1.045       .  S
C1633      H1640   1.085       .  S
C1633      C1634   1.403       .  A
C1633      C1638   1.392       .  A
C1634      C1635   1.403       .  A
C1635      C1636   1.405       .  A
C1635      N1642   1.437       .  S
C1636      H1641   1.083       .  S
C1636      C1637   1.411       .  A
C1637      C1638   1.407       .  A
C1638      N1639   1.432       .  S
N1639      H1643   1.046       .  S
N1639      H1644   1.045       .  S
N1642      H1645   1.046       .  S
N1642      H1646   1.045       .  S
C1647      H1654   1.084       .  S
C1647      C1648   1.410       .  A
C1647      C1652   1.407       .  A
C1648      C1649   1.412       .  A
C1649      C1650   1.402       .  A
C1649      N1656   1.438       .  S
C1650      H1655   1.084       .  S
C1650      C1651   1.402       .  A
C1651      C1652   1.409       .  A
C1652      N1653   1.438       .  S
N1653      H1657   1.046       .  S
N1653      H1658   1.046       .  S
N1656      H1659   1.046       .  S
N1656      H1660   1.046       .  S
C1661      H1668   1.083       .  S
C1661      C1662   1.402       .  A
C1661      C1666   1.405       .  A
C1662      C1663   1.425       .  A
C1663      C1664   1.402       .  A
C1663      N1670   1.427       .  S
C1664      H1669   1.084       .  S
C1664      C1665   1.401       .  A
C1665      C1666   1.420       .  A
C1666      N1667   1.437       .  S
N1667      H1671   1.046       .  S
N1667      H1672   1.043       .  S
N1670      H1673   1.042       .  S
N1670      H1674   1.044       .  S
