geometry optimzed in LAMMPS
_audit_creation_date              2020-11-30 
_audit_creation_method            'lammps2cif' 
_symmetry_space_group_name_H-M    'P1' 
_symmetry_Int_Tables_number       1 
_symmetry_cell_setting            triclinic 
loop_ 
_symmetry_equiv_pos_as_xyz 
  x,y,z 
_cell_length_a                    41.17960825 
_cell_length_b                    41.15505139975614 
_cell_length_c                    43.96525513604552 
_cell_angle_alpha                 90.01917460331826 
_cell_angle_beta                  90.03458302045699 
_cell_angle_gamma                 120.11114191168792 
loop_ 
_atom_site_label 
_atom_site_type_symbol 
_atom_site_fract_x 
_atom_site_fract_y 
_atom_site_fract_z 
_atom_site_charge 
O1          O  0.46703847  0.06896703  0.30158209    -0.76000
O2          O  0.48387064  0.03987234  0.33711712    -0.54900
C3          C  0.47047574  0.06090487  0.32927128     0.77700
O4          O  0.39945852  0.92927243  0.19858089    -0.60600
O5          O  0.44524373  0.96203329  0.16366883    -0.53600
C6          C  0.41122476  0.93842861  0.17102374     0.69800
O7          O  0.39837316  0.93368891  0.30184034    -0.75100
O8          O  0.44433806  0.96241301  0.33750856    -0.55700
C9          C  0.40987570  0.94147806  0.32958647     0.75800
O10         O  0.47192555  0.07303619  0.19885277    -0.60300
O11         O  0.48570138  0.04103611  0.16377890    -0.53400
C12         C  0.47469685  0.06409576  0.17121889     0.72300
Zr13       Zr  0.48252921  0.05791632  0.25054053     2.54700
O14         O  0.42854939  0.06706246  0.24932296    -0.80900
O15         O  0.52378089  0.12571251  0.25302365    -0.94300
Zr16       Zr  0.42419916  0.94561058  0.25040568     2.64700
O17         O  0.36300239  0.94132486  0.24893467    -0.99200
O18         O  0.39467101  0.87753019  0.25285680    -0.81300
O19         O  0.45274836  0.00172157  0.27941220    -0.84600
O20         O  0.45234387  0.00184198  0.22161422    -2.19400
O21         O  0.60303162  0.07029541  0.19922509    -0.68000
O22         O  0.55700026  0.03998925  0.16388861    -0.52600
C23         C  0.59132900  0.06211146  0.17154594     0.70700
O24         O  0.53187808  0.92976717  0.30176509    -0.60900
O25         O  0.51731629  0.96071531  0.33732299    -0.52900
C26         C  0.52911644  0.93832248  0.32951116     0.72500
O27         O  0.52818651  0.92796039  0.19834840    -0.72300
O28         O  0.51621908  0.96142551  0.16334174    -0.51000
C29         C  0.52613476  0.93751784  0.17075567     0.73900
O30         O  0.60345823  0.06833665  0.30216399    -0.67700
O31         O  0.55738412  0.03786024  0.33740269    -0.54900
C32         C  0.59180814  0.05953950  0.32977395     0.72300
Zr33       Zr  0.57738852  0.05532038  0.25079121     2.77500
O34         O  0.63686764  0.05594170  0.25151126    -0.98400
O35         O  0.60855344  0.12359375  0.25100034    -0.79200
Zr36       Zr  0.51870216  0.94299301  0.25036085     2.70100
O37         O  0.57289659  0.93418905  0.24903529    -0.80500
O38         O  0.47638455  0.87532834  0.25163865    -0.99600
Zr39       Zr  0.50071872  0.00035784  0.30852614     2.21500
Zr40       Zr  0.50096105  0.00105281  0.19292387     2.11100
O41         O  0.54898842  0.99932661  0.22175326    -2.48300
O42         O  0.54860393  0.99902079  0.27946674    -0.80300
O43         O  0.53082693  0.05823537  0.22094127    -0.72500
O44         O  0.47089071  0.94315118  0.28028906    -2.33400
O45         O  0.53050409  0.05773787  0.28053897    -2.29600
O46         O  0.47102589  0.94354026  0.22049938    -0.74200
H47         H  0.43357782  0.00210954  0.20862316     0.77800
H48         H  0.45969676  0.92162774  0.29362966     0.78800
H49         H  0.56766713  0.99889053  0.20878952     0.81100
H50         H  0.54162638  0.07918475  0.29398918     0.78700
H51         H  0.39002925  0.86915211  0.23138369     0.41700
H52         H  0.45709430  0.87059515  0.23609657     0.40700
H53         H  0.59473824  0.95984851  0.25124947     0.40400
H54         H  0.63329337  0.03587334  0.23714219     0.38300
H55         H  0.63542119  0.13196636  0.24781113     0.41400
H56         H  0.50657010  0.13594683  0.25214999     0.36200
H57         H  0.40721211  0.04212190  0.24374255     0.42300
H58         H  0.36595124  0.96084397  0.23422943     0.38700
H59         H  0.65498050  0.07961802  0.24126687     0.43700
H60         H  0.53684761  0.13247547  0.23315790     0.42400
H61         H  0.34621033  0.91719933  0.23860344     0.42500
H62         H  0.49112991  0.86470750  0.24271256     0.42900
O63         O  0.06713456  0.60256895  0.30148927    -0.76000
O64         O  0.03833339  0.55657085  0.33703128    -0.54900
C65         C  0.05900793  0.59109592  0.32916871     0.77700
O66         O  0.93030769  0.53089469  0.19770861    -0.60600
O67         O  0.96273940  0.51748690  0.16275878    -0.53600
C68         C  0.93957553  0.52844338  0.17013677     0.69800
O69         O  0.93104538  0.53321170  0.30093654    -0.75100
O70         O  0.96082086  0.51738615  0.33665558    -0.55700
C71         C  0.93900171  0.52984953  0.32870025     0.75800
O72         O  0.07393960  0.60156565  0.19896076    -0.60300
O73         O  0.04193698  0.55575275  0.16378200    -0.53400
C74         C  0.06541977  0.58976648  0.17131581     0.72300
Zr75       Zr  0.05708293  0.57599512  0.25048467     2.54700
O76         O  0.06458823  0.63852157  0.24849372    -0.80900
O77         O  0.12482101  0.60375197  0.25475564    -0.94300
Zr78       Zr  0.94472492  0.52058591  0.24966234     2.64700
O79         O  0.94002457  0.57727026  0.24954108    -0.99200
O80         O  0.87665377  0.48107908  0.25038565    -0.81300
O81         O  0.00065566  0.54883352  0.27892999    -0.84600
O82         O  0.00126127  0.54932297  0.22128375    -2.19400
O83         O  0.07128728  0.46836744  0.19916421    -0.68000
O84         O  0.03991371  0.48264519  0.16383204    -0.52600
C85         C  0.06258053  0.47116866  0.17148846     0.70700
O86         O  0.93340437  0.39725513  0.30054064    -0.60900
O87         O  0.96235439  0.44296915  0.33637063    -0.52900
C88         C  0.94179202  0.40849259  0.32829716     0.72500
O89         O  0.93016228  0.39888670  0.19787919    -0.72300
O90         O  0.96226340  0.44494451  0.16297749    -0.51000
C91         C  0.93932406  0.41074978  0.17031865     0.73900
O92         O  0.06916369  0.46658946  0.30211952    -0.67700
O93         O  0.03915779  0.48278524  0.33730860    -0.54900
C94         C  0.06080196  0.46996653  0.32976450     0.72300
Zr95       Zr  0.05600090  0.47924169  0.25059616     2.77500
O96         O  0.05800252  0.42102937  0.25132696    -0.98400
O97         O  0.12414019  0.51817359  0.25066867    -0.79200
Zr98       Zr  0.94342649  0.42438611  0.24965080     2.70100
O99         O  0.92901201  0.35939736  0.24908907    -0.80500
O100        O  0.87611956  0.40081046  0.25086329    -0.99600
Zr101      Zr  0.00013414  0.50003118  0.30814755     2.21500
Zr102      Zr  0.00113797  0.50027575  0.19247861     2.11100
O103        O  0.00003814  0.45090168  0.22146675    -2.48300
O104        O  0.99943400  0.45121338  0.27883032    -0.80300
O105        O  0.05811966  0.52836453  0.22077758    -0.72500
O106        O  0.94286917  0.47184411  0.27984734    -2.33400
O107        O  0.05759629  0.52822472  0.28036985    -2.29600
O108        O  0.94318524  0.47200376  0.21951863    -0.74200
H109        H  0.00172532  0.56846197  0.20827482     0.77800
H110        H  0.92130299  0.46112923  0.29319313     0.78800
H111        H  0.99994353  0.43180892  0.20862696     0.81100
H112        H  0.07904981  0.53891401  0.29391415     0.78700
H113        H  0.86758017  0.49749159  0.25862919     0.41700
H114        H  0.86953491  0.40305253  0.22960261     0.40700
H115        H  0.95337010  0.36101276  0.24475932     0.40400
H116        H  0.03823476  0.40422474  0.23684108     0.38300
H117        H  0.13310723  0.50168511  0.25892955     0.41400
H118        H  0.13404684  0.63044348  0.25977377     0.36200
H119        H  0.03859326  0.63399471  0.24841395     0.42300
H120        H  0.95922318  0.59417877  0.23476085     0.38700
H121        H  0.08190936  0.42717247  0.24124647     0.43700
H122        H  0.13344033  0.60425276  0.23365535     0.42400
H123        H  0.91570299  0.56984596  0.23958163     0.42500
H124        H  0.86479516  0.37343732  0.25414851     0.42900
O125        O  0.39751287  0.46176132  0.30224875    -0.76000
O126        O  0.44383587  0.48066052  0.33776137    -0.54900
C127        C  0.40918749  0.46600464  0.32999381     0.77700
O128        O  0.47214320  0.39925770  0.19835741    -0.60600
O129        O  0.48494489  0.44504109  0.16346681    -0.53600
C130        C  0.47459711  0.41104553  0.17076428     0.69800
O131        O  0.46718843  0.39785206  0.30200589    -0.75100
O132        O  0.48357642  0.44361004  0.33770619    -0.55700
C133        C  0.47038410  0.40919810  0.32976607     0.75800
O134        O  0.39827717  0.46874374  0.19950643    -0.60300
O135        O  0.44398701  0.48203550  0.16446119    -0.53400
C136        C  0.40994082  0.47123284  0.17193049     0.72300
Zr137      Zr  0.42393030  0.47853294  0.25100029     2.54700
O138        O  0.36122207  0.42375839  0.24768825    -0.80900
O139        O  0.39697201  0.51920709  0.25442354    -0.94300
Zr140      Zr  0.48137769  0.42381023  0.25053786     2.64700
O141        O  0.42512062  0.36187887  0.25030601    -0.99200
O142        O  0.52006680  0.39447628  0.25274135    -0.81300
O143        O  0.45211019  0.45045864  0.27961011    -0.84600
O144        O  0.45171841  0.45036149  0.22191981    -2.19400
O145        O  0.52847847  0.60075383  0.19927598    -0.68000
O146        O  0.51476105  0.55508509  0.16403069    -0.52600
C147        C  0.52541478  0.58909258  0.17161707     0.70700
O148        O  0.60334676  0.53698876  0.30188575    -0.60900
O149        O  0.55726695  0.51872598  0.33748719    -0.52900
C150        C  0.59185255  0.53319363  0.32963004     0.72500
O151        O  0.60224067  0.53160880  0.19910193    -0.72300
O152        O  0.55645107  0.51772918  0.16394606    -0.51000
C153        C  0.59059026  0.52878898  0.17146640     0.73900
O154        O  0.53513569  0.60237863  0.30204309    -0.67700
O155        O  0.51810141  0.55633117  0.33751753    -0.54900
C156        C  0.53186154  0.59089802  0.32973270     0.72300
Zr157      Zr  0.51913116  0.57558811  0.25100794     2.77500
O158        O  0.57448854  0.63813226  0.25078578    -0.98400
O159        O  0.47818205  0.60227663  0.25412085    -0.79200
Zr160      Zr  0.57673366  0.52113878  0.25068551     2.70100
O161        O  0.63805418  0.57786017  0.24820422    -0.80500
O162        O  0.60596851  0.48241711  0.25292216    -0.99600
Zr163      Zr  0.50042901  0.49967575  0.30877285     2.21500
Zr164      Zr  0.50030957  0.49995133  0.19316274     2.11100
O165        O  0.54881021  0.54938750  0.22200088    -2.48300
O166        O  0.54850407  0.54880279  0.27968352    -0.80300
O167        O  0.47085450  0.52766869  0.22109534    -0.72500
O168        O  0.52972047  0.47188917  0.28045597    -2.33400
O169        O  0.47096860  0.52758467  0.28092254    -2.29600
O170        O  0.52971338  0.47194016  0.22082074    -0.74200
H171        H  0.43288009  0.43127645  0.20891780     0.77800
H172        H  0.54085560  0.46158051  0.29394486     0.78800
H173        H  0.56756059  0.56856059  0.20904286     0.81100
H174        H  0.45996867  0.53798471  0.29446588     0.78700
H175        H  0.53447463  0.40367798  0.27192004     0.41700
H176        H  0.59736014  0.46698404  0.23419348     0.40700
H177        H  0.63259352  0.59861684  0.25019212     0.40400
H178        H  0.59046323  0.63761558  0.23418500     0.38300
H179        H  0.46903090  0.60093904  0.23307246     0.41400
H180        H  0.36959579  0.50195896  0.25231559     0.36200
H181        H  0.36524284  0.40208196  0.24984142     0.42300
H182        H  0.40938616  0.36277473  0.23365720     0.38700
H183        H  0.56544014  0.65488501  0.24329753     0.43700
H184        H  0.40442504  0.53369105  0.23520904     0.42400
H185        H  0.43364358  0.34469016  0.24283764     0.42500
H186        H  0.63296469  0.50023443  0.24935886     0.42900
O187        O  0.79068280  0.47236765  0.99145894    -0.76000
O188        O  0.85243492  0.51668008  0.99701429    -0.54900
C189        C  0.82575907  0.48258316  0.48946208     0.77700
O190        O  0.73453475  0.57875966  0.41535021    -0.60600
O191        O  0.69418238  0.57440350  0.45262347    -0.53600
C192        C  0.70329819  0.57525730  0.42446991     0.69800
O193        O  0.83910211  0.57233323  0.41464736    -0.75100
O194        O  0.87861855  0.57270242  0.45109304    -0.55700
C195        C  0.86781181  0.57021439  0.42325439     0.75800
O196        O  0.68129069  0.47131323  0.49122350    -0.60300
O197        O  0.66467451  0.51614655  0.49712400    -0.53400
C198        C  0.65684773  0.48200832  0.49279814     0.72300
Zr199      Zr  0.74925629  0.49786957  0.99786564     2.54700
O200        O  0.72187118  0.44693453  0.45770539    -0.80900
O201        O  0.72882757  0.45577791  0.04146038    -0.94300
Zr202      Zr  0.79040637  0.58168259  0.43648435     2.64700
O203        O  0.77026427  0.54336966  0.39053167    -0.99200
O204        O  0.82149803  0.63869112  0.40603707    -0.81300
O205        O  0.80017608  0.53853076  0.46504313    -0.84600
O206        O  0.73797418  0.53824951  0.46541337    -2.19400
O207        O  0.73032333  0.56546548  0.08434999    -0.68000
O208        O  0.69199705  0.56736989  0.04790538    -0.52600
C209        C  0.69978361  0.56392598  0.07570365     0.70700
O210        O  0.89723281  0.68163603  0.50591636    -0.60900
O211        O  0.90904549  0.63301873  0.50288508    -0.52900
C212        C  0.91997607  0.66861369  0.00671905     0.72500
O213        O  0.78491876  0.68119180  0.50565464    -0.72300
O214        O  0.72421160  0.63265319  0.50416035    -0.51000
C215        C  0.74946857  0.66862870  0.00534003     0.73900
O216        O  0.84045798  0.57031606  0.08419340    -0.67700
O217        O  0.87819661  0.56910505  0.04683687    -0.54900
C218        C  0.86872357  0.56780225  0.07492313     0.72300
Zr219      Zr  0.78825437  0.57435087  0.06289597     2.77500
O220        O  0.81259066  0.62855044  0.09650417    -0.98400
O221        O  0.76794214  0.53067665  0.10546406    -0.79200
Zr222      Zr  0.82807523  0.65526662  0.50325240     2.70100
O223        O  0.85235907  0.70539850  0.03992553    -0.80500
O224        O  0.85155222  0.70148865  0.46246765    -0.99600
Zr225      Zr  0.85039368  0.57467269  0.49914259     2.21500
Zr226      Zr  0.72486440  0.57462214  0.50014022     2.11100
O227        O  0.77644752  0.61495065  0.03293594    -2.48300
O228        O  0.84014049  0.61511657  0.03245241    -0.80300
O229        O  0.73647849  0.53483207  0.03141346    -0.72500
O230        O  0.84153874  0.61837802  0.46930711    -2.33400
O231        O  0.79951297  0.53458153  0.03105164    -2.29600
O232        O  0.77685952  0.61844027  0.46992701    -0.74200
H233        H  0.71703622  0.52356553  0.45200600     0.77800
H234        H  0.86364761  0.63423442  0.45741066     0.78800
H235        H  0.76971476  0.62932505  0.04623097     0.81100
H236        H  0.80498361  0.51817168  0.04294930     0.78700
H237        H  0.80078102  0.64112246  0.39702192     0.41700
H238        H  0.82910815  0.69538345  0.45007822     0.40700
H239        H  0.86115354  0.69565623  0.05668049     0.40400
H240        H  0.80354074  0.61772856  0.11695698     0.38300
H241        H  0.76057512  0.50605464  0.09607373     0.41400
H242        H  0.71221456  0.43057885  0.03268198     0.36200
H243        H  0.73355509  0.45956771  0.43828638     0.42300
H244        H  0.74409871  0.52337988  0.39460684     0.38700
H245        H  0.83999645  0.63837543  0.09716021     0.43700
H246        H  0.71164995  0.46174119  0.05272843     0.42400
H247        H  0.76815421  0.55936530  0.37473848     0.42500
H248        H  0.85802945  0.72548393  0.47260887     0.42900
O249        O  0.68163531  0.21019839  0.98912608    -0.76000
O250        O  0.66426798  0.14888849  0.99721917    -0.54900
C251        C  0.65732408  0.17555062  0.49166225     0.77700
O252        O  0.84283477  0.26712526  0.41439030    -0.60600
O253        O  0.88077405  0.30720384  0.45121271    -0.53600
C254        C  0.87152428  0.29803759  0.42320703     0.69800
O255        O  0.73283175  0.15887529  0.41536671    -0.75100
O256        O  0.69362860  0.12120142  0.45270794    -0.55700
C257        C  0.70208278  0.13045917  0.42464948     0.75800
O258        O  0.79035070  0.31983744  0.49082627    -0.60300
O259        O  0.85209812  0.33706530  0.49562752    -0.53400
C260        C  0.82550429  0.34452636  0.49158594     0.72300
Zr261      Zr  0.74839754  0.25202979  0.99691891     2.54700
O262        O  0.72471474  0.27831914  0.45859938    -0.80900
O263        O  0.72377129  0.27348423  0.03768886    -0.94300
Zr264      Zr  0.79000575  0.21091455  0.43579360     2.64700
O265        O  0.76685551  0.23065735  0.39264454    -0.99200
O266        O  0.81625544  0.18340475  0.40174059    -0.81300
O267        O  0.73782352  0.20074441  0.46561107    -0.84600
O268        O  0.80020320  0.26352447  0.46493140    -2.19400
O269        O  0.83725430  0.27273213  0.08280823    -0.68000
O270        O  0.87771510  0.31040329  0.04621505    -0.52600
C271        C  0.86664928  0.30286072  0.07400003     0.70700
O272        O  0.78545647  0.10441306  0.50433618    -0.60900
O273        O  0.72495249  0.09261429  0.50444555    -0.52900
C274        C  0.74854569  0.08168118  0.00580642     0.72500
O275        O  0.89715874  0.21644370  0.50371797    -0.72300
O276        O  0.90906517  0.27702436  0.50259062    -0.51000
C277        C  0.91920066  0.25184814  0.00472693     0.73900
O278        O  0.73170969  0.16258926  0.08468973    -0.67700
O279        O  0.69236315  0.12363339  0.04802984    -0.54900
C280        C  0.70100080  0.13374900  0.07599268     0.72300
Zr281      Zr  0.78717639  0.21442456  0.06255355     2.77500
O282        O  0.81617334  0.19073898  0.09773301    -0.98400
O283        O  0.76436745  0.23464305  0.10549749    -0.79200
Zr284      Zr  0.82811353  0.17360946  0.50138201     2.70100
O285        O  0.85270850  0.14888350  0.03950165    -0.80500
O286        O  0.85105803  0.15003726  0.46084427    -0.99600
Zr287      Zr  0.72497886  0.15098655  0.49983634     2.21500
Zr288      Zr  0.85065024  0.27692364  0.49867714     2.11100
O289        O  0.83917356  0.22565120  0.03241483    -2.48300
O290        O  0.77560418  0.16194279  0.03262999    -0.80300
O291        O  0.79848922  0.26554466  0.03066254    -0.72500
O292        O  0.77671333  0.16007902  0.46863406    -2.33400
O293        O  0.73556668  0.20267129  0.03105497    -2.29600
O294        O  0.84131113  0.22461616  0.46818309    -0.74200
H295        H  0.80608878  0.28436808  0.45155189     0.77800
H296        H  0.77012356  0.13787582  0.45674466     0.78800
H297        H  0.86043067  0.23255263  0.04561932     0.81100
H298        H  0.71380783  0.19726601  0.04311581     0.78700
H299        H  0.84367995  0.19828940  0.40526664     0.41700
H300        H  0.87103933  0.17284796  0.45076316     0.40700
H301        H  0.86094958  0.16730085  0.05635817     0.40400
H302        H  0.80727432  0.19321549  0.11805291     0.38300
H303        H  0.75096044  0.24644166  0.09610989     0.41400
H304        H  0.72155527  0.29425843  0.02851025     0.36200
H305        H  0.72493167  0.26607223  0.43926991     0.42300
H306        H  0.77154615  0.25598015  0.39817631     0.38700
H307        H  0.80309039  0.16333090  0.09394134     0.43700
H308        H  0.74482458  0.28602382  0.05228405     0.42400
H309        H  0.78466625  0.23504641  0.37589677     0.42500
H310        H  0.86464773  0.13926369  0.47156471     0.42900
O311        O  0.31945047  0.79043854  0.98762417    -0.76000
O312        O  0.33701391  0.85170606  0.99624754    -0.54900
C313        C  0.34379464  0.82392322  0.49098647     0.77700
O314        O  0.15772570  0.73339624  0.41461365    -0.60600
O315        O  0.12081884  0.69307353  0.45166134    -0.53600
C316        C  0.12966376  0.70219134  0.42362265     0.69800
O317        O  0.26850612  0.83970008  0.41507478    -0.75100
O318        O  0.30777702  0.87831266  0.45196991    -0.55700
C319        C  0.29933378  0.86828031  0.42402043     0.75800
O320        O  0.21061493  0.68028167  0.49019061    -0.60300
O321        O  0.14905009  0.66347575  0.49566721    -0.53400
C322        C  0.17543889  0.65577105  0.49141134     0.72300
Zr323      Zr  0.25266530  0.74814372  0.99496283     2.54700
O324        O  0.27573013  0.72415149  0.45492949    -0.80900
O325        O  0.27657239  0.72605037  0.03592598    -0.94300
Zr326      Zr  0.21015970  0.79003167  0.43578542     2.64700
O327        O  0.22967855  0.77332157  0.38880324    -0.99200
O328        O  0.18359701  0.82069829  0.40561318    -0.81300
O329        O  0.26266381  0.79952403  0.46489596    -0.84600
O330        O  0.20055661  0.73717897  0.46444476    -2.19400
O331        O  0.16654123  0.72825679  0.08344604    -0.68000
O332        O  0.12553597  0.69036539  0.04712904    -0.52600
C333        C  0.13717449  0.69799397  0.07484735     0.70700
O334        O  0.21705324  0.89613748  0.50588075    -0.60900
O335        O  0.27762157  0.90812878  0.50410879    -0.52900
C336        C  0.25257112  0.91872872  0.00636197     0.72500
O337        O  0.10457357  0.78458256  0.50347243    -0.72300
O338        O  0.09248644  0.72391546  0.50248560    -0.51000
C339        C  0.08210932  0.74818941  0.00565805     0.73900
O340        O  0.27205483  0.83722373  0.08364993    -0.67700
O341        O  0.31073589  0.87622645  0.04676789    -0.54900
C342        C  0.30264034  0.86602046  0.07474963     0.72300
Zr343      Zr  0.21582908  0.78578730  0.06194751     2.77500
O344        O  0.18733163  0.80985153  0.09720921    -0.98400
O345        O  0.23965772  0.76456808  0.10346917    -0.79200
Zr346      Zr  0.17378904  0.82717434  0.50212001     2.70100
O347        O  0.15202263  0.85071148  0.04395470    -0.80500
O348        O  0.15169607  0.85156229  0.46151876    -0.99600
Zr349      Zr  0.27673371  0.84934773  0.49940979     2.21500
Zr350      Zr  0.15084541  0.72375085  0.49900888     2.11100
O351        O  0.16298286  0.77447866  0.03287009    -2.48300
O352        O  0.22676534  0.83849960  0.03277853    -0.80300
O353        O  0.20352645  0.73471812  0.02958346    -0.72500
O354        O  0.22473155  0.84095557  0.46884785    -2.33400
O355        O  0.26640572  0.79740487  0.02944298    -2.29600
O356        O  0.15947823  0.77600024  0.46882075    -0.74200
H357        H  0.19451289  0.71634036  0.45101114     0.77800
H358        H  0.23133634  0.86326362  0.45709463     0.78800
H359        H  0.14204443  0.76749458  0.04637342     0.81100
H360        H  0.28840354  0.80269144  0.04110561     0.78700
H361        H  0.15937290  0.79992550  0.39805065     0.41700
H362        H  0.13045977  0.82903643  0.45212354     0.40700
H363        H  0.13600574  0.82837001  0.05656474     0.40400
H364        H  0.19563528  0.80659668  0.11754841     0.38300
H365        H  0.26033172  0.76222585  0.09426663     0.41400
H366        H  0.30257462  0.74675275  0.03941505     0.36200
H367        H  0.26412398  0.72683026  0.43606815     0.42300
H368        H  0.22376944  0.74705905  0.39173607     0.38700
H369        H  0.20106362  0.83734996  0.09385575     0.43700
H370        H  0.27956962  0.70581321  0.02658817     0.42400
H371        H  0.21164940  0.77183854  0.37317799     0.42500
H372        H  0.13983451  0.86412363  0.47221393     0.42900
O373        O  0.57077921  0.83832874  0.41611205    -0.76000
O374        O  0.57192087  0.87824777  0.45251588    -0.54900
C375        C  0.56894144  0.86721070  0.42470100     0.77700
O376        O  0.47168416  0.67986351  0.49397365    -0.60600
O377        O  0.51702410  0.66367015  0.49770601    -0.53600
C378        C  0.48264683  0.65559647  0.49471239     0.69800
O379        O  0.47158779  0.78987264  0.98953709    -0.75100
O380        O  0.51567148  0.85148172  0.99657427    -0.55700
C381        C  0.48161414  0.82377282  0.49218462     0.75800
O382        O  0.57613449  0.73338744  0.41548552    -0.60300
O383        O  0.57413581  0.69379329  0.45257549    -0.53400
C384        C  0.57359343  0.70247345  0.42448878     0.72300
Zr385      Zr  0.58116223  0.78993248  0.43731707     2.54700
O386        O  0.54633187  0.77138349  0.38970847    -0.80900
O387        O  0.63886378  0.82016273  0.40777509    -0.94300
Zr388      Zr  0.49685632  0.74821780  0.99642520     2.64700
O389        O  0.45005613  0.72312061  0.45636342    -0.99200
O390        O  0.45005017  0.72476682  0.03678154    -0.81300
O391        O  0.53801252  0.79929608  0.46625673    -0.84600
O392        O  0.53802345  0.73708965  0.46609644    -2.19400
O393        O  0.68239746  0.78578511  0.50581997    -0.68000
O394        O  0.63384137  0.72510070  0.50351598    -0.52600
C395        C  0.66794594  0.74919383  0.00542953     0.70700
O396        O  0.56636366  0.83785948  0.08382673    -0.60900
O397        O  0.56766180  0.87742857  0.04705347    -0.52900
C398        C  0.56486592  0.86679994  0.07497775     0.72500
O399        O  0.56501381  0.72949280  0.08480464    -0.72300
O400        O  0.56564338  0.69072465  0.04817970    -0.51000
C401        C  0.56276951  0.69869481  0.07603048     0.73900
O402        O  0.68157626  0.89714521  0.50531421    -0.67700
O403        O  0.63263616  0.90858044  0.50425178    -0.54900
C404        C  0.66764603  0.91949287  0.00573269     0.72300
Zr405      Zr  0.65543929  0.82798787  0.50376536     2.77500
O406        O  0.69785160  0.84945308  0.04692956    -0.98400
O407        O  0.70348419  0.85181168  0.46448138    -0.79200
Zr408      Zr  0.57161620  0.78640073  0.06307364     2.70100
O409        O  0.62321707  0.81167425  0.09939509    -0.80500
O410        O  0.52470846  0.76388224  0.10340541    -0.99600
Zr411      Zr  0.57433565  0.84964739  0.50028897     2.21500
Zr412      Zr  0.57505537  0.72433926  0.50030834     2.11100
O413        O  0.61330495  0.77523604  0.03404841    -2.48300
O414        O  0.61312361  0.83905635  0.03354864    -0.80300
O415        O  0.61846982  0.77678289  0.47034005    -0.72500
O416        O  0.53267966  0.79798585  0.03043302    -2.33400
O417        O  0.61796474  0.84108938  0.47009747    -2.29600
O418        O  0.53298508  0.73518895  0.03085623    -0.74200
H419        H  0.52311232  0.71607538  0.45282852     0.77800
H420        H  0.51597156  0.80330180  0.04204412     0.78800
H421        H  0.62738182  0.76831691  0.04751569     0.81100
H422        H  0.63358377  0.86323427  0.45815106     0.78700
H423        H  0.44945759  0.74713884  0.04429782     0.41700
H424        H  0.50628079  0.73763831  0.09776669     0.40700
H425        H  0.63640174  0.83917318  0.09608799     0.40400
H426        H  0.69325578  0.82622445  0.05739572     0.38300
H427        H  0.69771734  0.82948943  0.45203087     0.41400
H428        H  0.63728128  0.83979107  0.39594891     0.36200
H429        H  0.51988520  0.76159332  0.39581200     0.42300
H430        H  0.45744005  0.70860693  0.44292540     0.38700
H431        H  0.72305744  0.85964815  0.03773706     0.43700
H432        H  0.63561931  0.80113594  0.39243238     0.42400
H433        H  0.42671252  0.70392555  0.46637300     0.42500
H434        H  0.53768664  0.76169689  0.12159282     0.42900
O435        O  0.21178235  0.52864657  0.99078194    -0.76000
O436        O  0.15007582  0.48439345  0.99695131    -0.54900
C437        C  0.17593623  0.51812422  0.49186103     0.77700
O438        O  0.26715952  0.42376388  0.41587325    -0.60600
O439        O  0.30704344  0.42637851  0.45302577    -0.53600
C440        C  0.29822631  0.42660031  0.42493547     0.69800
O441        O  0.15994173  0.42714571  0.41566981    -0.75100
O442        O  0.12206196  0.42860647  0.45278399    -0.55700
C443        C  0.13167455  0.42984550  0.42475805     0.75800
O444        O  0.32026483  0.52842080  0.99484870    -0.60300
O445        O  0.33623090  0.48356707  0.49862328    -0.53400
C446        C  0.34424855  0.51786082  0.49493761     0.72300
Zr447      Zr  0.25298060  0.50277237  0.99794903     2.54700
O448        O  0.28030959  0.55440210  0.46087367    -0.80900
O449        O  0.27361900  0.54734362  0.03992368    -0.94300
Zr450      Zr  0.21055970  0.41994141  0.43686708     2.64700
O451        O  0.22941994  0.45985655  0.39188608    -0.99200
O452        O  0.18015089  0.36271407  0.40653853    -0.81300
O453        O  0.20113703  0.46269034  0.46639414    -0.84600
O454        O  0.26300849  0.46239014  0.46645054    -2.19400
O455        O  0.27121131  0.43302773  0.08423883    -0.68000
O456        O  0.30956040  0.43136177  0.04775357    -0.52600
C457        C  0.30160008  0.43434692  0.07558178     0.70700
O458        O  0.10362972  0.31892442  0.50479448    -0.60900
O459        O  0.09236961  0.36796759  0.50402707    -0.52900
C460        C  0.08160420  0.33225146  0.00520627     0.72500
O461        O  0.21518544  0.31825040  0.50394261    -0.72300
O462        O  0.27599673  0.36667528  0.50356565    -0.51000
C463        C  0.25105477  0.33105615  0.00475797     0.73900
O464        O  0.16235214  0.43002835  0.08498742    -0.67700
O465        O  0.12518503  0.43277346  0.04788831    -0.54900
C466        C  0.13452905  0.43340349  0.07597178     0.72300
Zr467      Zr  0.21379653  0.42556752  0.06305196     2.77500
O468        O  0.18825168  0.37063863  0.09600288    -0.98400
O469        O  0.23339495  0.46725012  0.10698463    -0.79200
Zr470      Zr  0.17255171  0.34480046  0.50244476     2.70100
O471        O  0.15084853  0.29839699  0.04235069    -0.80500
O472        O  0.14779306  0.29684336  0.46289605    -0.99600
Zr473      Zr  0.15094035  0.42603271  0.50022812     2.21500
Zr474      Zr  0.27588424  0.42507704  0.50037380     2.11100
O475        O  0.22523927  0.38509104  0.03272838    -2.48300
O476        O  0.16152559  0.38536536  0.03266566    -0.80300
O477        O  0.26548836  0.46544922  0.03157159    -0.72500
O478        O  0.15946067  0.38279975  0.46944750    -2.33400
O479        O  0.20317195  0.46610019  0.03152919    -2.29600
O480        O  0.22386775  0.38230032  0.46948071    -0.74200
H481        H  0.28406486  0.47739617  0.45327170     0.77800
H482        H  0.13729220  0.36729612  0.45746070     0.78800
H483        H  0.23182577  0.37048056  0.04588155     0.81100
H484        H  0.19800045  0.48261044  0.04358594     0.78700
H485        H  0.20104968  0.36021548  0.39804089     0.41700
H486        H  0.17017785  0.30060241  0.45153955     0.40700
H487        H  0.13559678  0.30511805  0.05550961     0.40400
H488        H  0.19902681  0.38077343  0.11629438     0.38300
H489        H  0.23417464  0.49033222  0.09952621     0.41400
H490        H  0.29431076  0.57088536  0.03131753     0.36200
H491        H  0.27819653  0.54189572  0.44113368     0.42300
H492        H  0.25601685  0.47906862  0.39548590     0.38700
H493        H  0.16128869  0.36253615  0.09799276     0.43700
H494        H  0.28616148  0.53848395  0.05416915     0.42400
H495        H  0.23013902  0.44399572  0.37526205     0.42500
H496        H  0.13900690  0.27291655  0.47397252     0.42900
O497        O  0.42901658  0.16071062  0.41548092    -0.76000
O498        O  0.42826412  0.12115418  0.45202709    -0.54900
C499        C  0.43075967  0.13180392  0.42417285     0.77700
O500        O  0.52900186  0.31960704  0.49194380    -0.60600
O501        O  0.48421835  0.33623181  0.49778397    -0.53600
C502        C  0.51839330  0.34409209  0.49360906     0.69800
O503        O  0.52948069  0.21054997  0.98868726    -0.75100
O504        O  0.48510678  0.14893002  0.99519341    -0.55700
C505        C  0.51918142  0.17595996  0.49162038     0.75800
O506        O  0.42313492  0.26587824  0.41509572    -0.60300
O507        O  0.42597103  0.30596352  0.45217167    -0.53400
C508        C  0.42615857  0.29702960  0.42410106     0.72300
Zr509      Zr  0.41884706  0.20940723  0.43647391     2.54700
O510        O  0.45476186  0.22856276  0.38941635    -0.80900
O511        O  0.36179194  0.17740947  0.40614740    -0.94300
Zr512      Zr  0.50428309  0.25239878  0.99474313     2.64700
O513        O  0.54757353  0.27399582  0.45296355    -0.99200
O514        O  0.55237330  0.27670918  0.03415621    -0.81300
O515        O  0.46221688  0.20008356  0.46511846    -0.84600
O516        O  0.46198200  0.26251635  0.46512920    -2.19400
O517        O  0.31891051  0.21479199  0.50433435    -0.68000
O518        O  0.36726167  0.27567335  0.50411481    -0.52600
C519        C  0.33301016  0.25135858  0.00500796     0.70700
O520        O  0.43477139  0.16321146  0.08314593    -0.60900
O521        O  0.43434085  0.12388531  0.04654767    -0.52900
C522        C  0.43661986  0.13439218  0.07447382     0.72500
O523        O  0.43812888  0.27292456  0.08263891    -0.72300
O524        O  0.43430777  0.31035292  0.04638436    -0.51000
C525        C  0.43853986  0.30295200  0.07407171     0.73900
O526        O  0.31960349  0.10305433  0.50635327    -0.67700
O527        O  0.36847360  0.09156271  0.50444728    -0.54900
C528        C  0.33307732  0.08122548  0.00647389     0.72300
Zr529      Zr  0.34542166  0.17210038  0.50325525     2.77500
O530        O  0.30321735  0.15169115  0.04605844    -0.98400
O531        O  0.29701845  0.14638052  0.46412634    -0.79200
Zr532      Zr  0.43035503  0.21501348  0.06188157     2.70100
O533        O  0.37953221  0.19199127  0.09876092    -0.80500
O534        O  0.47722902  0.23526510  0.10212846    -0.99600
Zr535      Zr  0.42649427  0.15030236  0.49959069     2.21500
Zr536      Zr  0.42564423  0.27567668  0.49979790     2.11100
O537        O  0.38835991  0.22571382  0.03283664    -2.48300
O538        O  0.38820174  0.16202514  0.03290483    -0.80300
O539        O  0.38202606  0.22310799  0.46968786    -0.72500
O540        O  0.46896503  0.20311337  0.02925834    -2.33400
O541        O  0.38248632  0.15854819  0.46955754    -2.29600
O542        O  0.46863939  0.26593571  0.02934249    -0.74200
H543        H  0.47672650  0.28348024  0.45179976     0.77800
H544        H  0.48581097  0.19797466  0.04087921     0.78800
H545        H  0.37443948  0.23274590  0.04636779     0.81100
H546        H  0.36671655  0.13624463  0.45778742     0.78700
H547        H  0.54492675  0.29075951  0.04807108     0.41700
H548        H  0.49538745  0.26192185  0.09755715     0.40700
H549        H  0.36231299  0.16559228  0.09272357     0.40400
H550        H  0.31155967  0.17438528  0.05877117     0.38300
H551        H  0.30038485  0.16856485  0.45265584     0.41400
H552        H  0.36960137  0.16988545  0.38737043     0.36200
H553        H  0.48130157  0.24153451  0.39612539     0.42300
H554        H  0.53832192  0.28627928  0.43882375     0.38700
H555        H  0.27890745  0.14660892  0.03740031     0.43700
H556        H  0.35698908  0.19760834  0.39952069     0.42400
H557        H  0.57108928  0.29485997  0.46147624     0.42500
H558        H  0.46401014  0.23600193  0.12069299     0.42900
C559        C  0.29938763  0.31835494  0.02593908    -0.14000
C560        C  0.26653460  0.30548937  0.00856414     0.08100
C561        C  0.25243994  0.27115309  0.99289274    -0.14000
C562        C  0.27264844  0.25172205  0.99288871    -0.14000
C563        C  0.30711114  0.26652136  0.00851280     0.08100
C564        C  0.31933786  0.29928239  0.02586195    -0.14000
H565        H  0.31063868  0.34430151  0.03874573     0.12100
H566        H  0.22718827  0.26058018  0.97930830     0.12100
H567        H  0.26253070  0.22648416  0.97934310     0.12100
H568        H  0.34533541  0.31105343  0.03862672     0.12100
C569        C  0.44581956  0.58852500  0.51293645    -0.14000
C570        C  0.45259672  0.61612311  0.49101638     0.08100
C571        C  0.42613698  0.60787782  0.46786549    -0.14000
C572        C  0.39212100  0.57417765  0.46799244    -0.14000
C573        C  0.38372126  0.54782836  0.49124509     0.08100
C574        C  0.41138509  0.55437799  0.51304799    -0.14000
H575        H  0.46570910  0.59452358  0.53120656     0.12100
H576        H  0.43081259  0.62868582  0.45070743     0.12100
H577        H  0.37128216  0.56965550  0.45089933     0.12100
H578        H  0.40527760  0.53455382  0.53138017     0.12100
C579        C  0.30341284  0.98059463  0.02473845    -0.14000
C580        C  0.26846528  0.95999697  0.01019646     0.08100
C581        C  0.25292387  0.97958883  0.49676272    -0.14000
C582        C  0.27255428  0.01930494  0.49682727    -0.14000
C583        C  0.30790111  0.03986953  0.01036725     0.08100
C584        C  0.32268847  0.01967672  0.02484429    -0.14000
H585        H  0.31666098  0.96639385  0.03529651     0.12100
H586        H  0.22645294  0.96450826  0.48475663     0.12100
H587        H  0.26085482  0.03406457  0.48484239     0.12100
H588        H  0.35013809  0.03423804  0.03546244     0.12100
C589        C  0.18598927  0.60899642  0.46486352    -0.14000
C590        C  0.16624324  0.61645770  0.48717581     0.08100
C591        C  0.14385272  0.58809300  0.50805299    -0.14000
C592        C  0.14414122  0.55402013  0.50822327    -0.14000
C593        C  0.16685666  0.54827899  0.48753768     0.08100
C594        C  0.18632929  0.57535652  0.46506366    -0.14000
H595        H  0.20324851  0.63033661  0.44840698     0.12100
H596        H  0.12869101  0.59341689  0.52563502     0.12100
H597        H  0.12911579  0.53359616  0.52590878     0.12100
H598        H  0.20376359  0.57143671  0.44871936     0.12100
C599        C  0.39044544  0.81266341  0.46510449    -0.14000
C600        C  0.38299344  0.83276423  0.48709320     0.08100
C601        C  0.41268746  0.85869326  0.00531455    -0.14000
C602        C  0.44678326  0.85844425  0.00567804    -0.14000
C603        C  0.45133898  0.83260666  0.48776223     0.08100
C604        C  0.42418271  0.81259617  0.46543091    -0.14000
H605        H  0.36911802  0.79507766  0.44872782     0.12100
H606        H  0.40802255  0.87532082  0.02197086     0.12100
H607        H  0.46786503  0.87496013  0.02255340     0.12100
H608        H  0.42816028  0.79498998  0.44928474     0.12100
C609        C  0.74822252  0.02059704  0.99524550    -0.14000
C610        C  0.73275888  0.04048699  0.00941190     0.08100
C611        C  0.69863186  0.02004626  0.02508556    -0.14000
C612        C  0.67914644  0.98097698  0.02502083    -0.14000
C613        C  0.69297716  0.96075234  0.00928353     0.08100
C614        C  0.72841875  0.98086443  0.99520233    -0.14000
H615        H  0.77442930  0.03561987  0.98291213     0.12100
H616        H  0.68617660  0.03438701  0.03667066     0.12100
H617        H  0.65231041  0.96644214  0.03657256     0.12100
H618        H  0.73976308  0.96602005  0.98286351     0.12100
C619        C  0.98098350  0.30225366  0.02344920    -0.14000
C620        C  0.96043875  0.26766743  0.00837263     0.08100
C621        C  0.98024610  0.25150189  0.99517290    -0.14000
C622        C  0.01999285  0.27116235  0.99527806    -0.14000
C623        C  0.04023151  0.30711293  0.00863297     0.08100
C624        C  0.02002497  0.32155662  0.02356991    -0.14000
H625        H  0.96676168  0.31519720  0.03446318     0.12100
H626        H  0.96516961  0.22480026  0.98347108     0.12100
H627        H  0.03475113  0.25922925  0.98363541     0.12100
H628        H  0.03454036  0.34872685  0.03466541     0.12100
C629        C  0.61137182  0.18812374  0.46601576    -0.14000
C630        C  0.61810570  0.16690063  0.48742883     0.08100
C631        C  0.58907466  0.14383260  0.00756534    -0.14000
C632        C  0.55493644  0.14395678  0.00729809    -0.14000
C633        C  0.54973426  0.16733821  0.48751436     0.08100
C634        C  0.57772058  0.18836544  0.46607365    -0.14000
H635        H  0.63319335  0.20642233  0.45029203     0.12100
H636        H  0.59427461  0.12887438  0.02541356     0.12100
H637        H  0.53439463  0.12906096  0.02493020     0.12100
H638        H  0.57439682  0.20679367  0.45037550     0.12100
C639        C  0.98148574  0.72900888  0.99591451    -0.14000
C640        C  0.96122596  0.69396228  0.01059034     0.08100
C641        C  0.98140707  0.68013310  0.02646101    -0.14000
C642        C  0.02050229  0.69910010  0.02591891    -0.14000
C643        C  0.04098287  0.73273525  0.00959418     0.08100
C644        C  0.02119140  0.74833826  0.99545919    -0.14000
H645        H  0.96672472  0.74030012  0.98338255     0.12100
H646        H  0.96678740  0.65355072  0.03839750     0.12100
H647        H  0.03480355  0.68662640  0.03753992     0.12100
H648        H  0.03623341  0.77422884  0.98270016     0.12100
C649        C  0.74856498  0.72908586  0.99417817    -0.14000
C650        C  0.73365692  0.69404171  0.00889500     0.08100
C651        C  0.69989387  0.68050052  0.02507952    -0.14000
C652        C  0.68016670  0.69978016  0.02493622    -0.14000
C653        C  0.69344128  0.73349444  0.00870712     0.08100
C654        C  0.72854263  0.74874217  0.99409152    -0.14000
H655        H  0.77448031  0.74019824  0.98145682     0.12100
H656        H  0.68786673  0.65398824  0.03712044     0.12100
H657        H  0.65360341  0.68750788  0.03689703     0.12100
H658        H  0.73945457  0.77464920  0.98135524     0.12100
C659        C  0.85867123  0.44755329  0.50536510    -0.14000
C660        C  0.83488075  0.45240793  0.48518760     0.08100
C661        C  0.81392455  0.42412468  0.46389050    -0.14000
C662        C  0.81363367  0.39018916  0.46466739    -0.14000
C663        C  0.83442575  0.38367777  0.48665660     0.08100
C664        C  0.85841941  0.41319601  0.50612115    -0.14000
H665        H  0.87494319  0.46894791  0.52210727     0.12100
H666        H  0.79569630  0.42732597  0.44788604     0.12100
H667        H  0.79524609  0.36802315  0.44918613     0.12100
H668        H  0.87456710  0.40871586  0.52335822     0.12100
C669        C  0.60960314  0.42442746  0.46672486    -0.14000
C670        C  0.61740237  0.45195233  0.48882605     0.08100
C671        C  0.58902758  0.44662036  0.50947321    -0.14000
C672        C  0.55465608  0.41235560  0.50979588    -0.14000
C673        C  0.54864425  0.38348288  0.48939312     0.08100
C674        C  0.57570345  0.39067310  0.46701095    -0.14000
H675        H  0.63082834  0.42807734  0.45033695     0.12100
H676        H  0.59453534  0.46751744  0.52677324     0.12100
H677        H  0.53422072  0.40738970  0.52733560     0.12100
H678        H  0.57156070  0.36906142  0.45081065     0.12100
C679        C  0.45122398  0.34557606  0.15228840    -0.14000
C680        C  0.46420014  0.38347016  0.14570312     0.08100
C681        C  0.46652324  0.39448906  0.11503114    -0.14000
C682        C  0.45705842  0.36826270  0.09152154    -0.14000
C683        C  0.44517118  0.33058765  0.09827543     0.08100
C684        C  0.44185835  0.31953250  0.12892497    -0.14000
H685        H  0.44855004  0.33594304  0.17555916     0.12100
H686        H  0.47606497  0.42345139  0.10913512     0.12100
H687        H  0.45998621  0.37764594  0.06814952     0.12100
H688        H  0.43241524  0.29063375  0.13498838     0.12100
C689        C  0.44240956  0.34235684  0.34663065    -0.14000
C690        C  0.45735721  0.38042499  0.35411084     0.08100
C691        C  0.45893719  0.39043054  0.38493359    -0.14000
C692        C  0.44685679  0.36308620  0.40774302    -0.14000
C693        C  0.43309001  0.32519109  0.40022373     0.08100
C694        C  0.43039335  0.31512754  0.36935209    -0.14000
H695        H  0.44037881  0.33350595  0.32316812     0.12100
H696        H  0.46997470  0.41946190  0.39151614     0.12100
H697        H  0.44958545  0.37184360  0.43128430     0.12100
H698        H  0.41989489  0.28620840  0.36266850     0.12100
C699        C  0.65537815  0.54795765  0.15361062    -0.14000
C700        C  0.61854281  0.53908313  0.14673400     0.08100
C701        C  0.60887007  0.54001665  0.11612328    -0.14000
C702        C  0.63532240  0.54888569  0.09291469    -0.14000
C703        C  0.67193105  0.55694631  0.09987368     0.08100
C704        C  0.68164710  0.55671237  0.13054703    -0.14000
H705        H  0.66394062  0.54770707  0.17686484     0.12100
H706        H  0.58078309  0.53361823  0.11004137     0.12100
H707        H  0.62691871  0.54877743  0.06955327     0.12100
H708        H  0.70960921  0.56292673  0.13688155     0.12100
C709        C  0.65850913  0.56052120  0.34679417    -0.14000
C710        C  0.62058777  0.54658452  0.35408576     0.08100
C711        C  0.61062952  0.54563057  0.38485640    -0.14000
C712        C  0.63778419  0.55688472  0.40782144    -0.14000
C713        C  0.67544374  0.56929524  0.40049949     0.08100
C714        C  0.68553944  0.57177816  0.36964287    -0.14000
H715        H  0.66734811  0.56205528  0.32338858     0.12100
H716        H  0.58173385  0.53552190  0.39128344     0.12100
H717        H  0.62901884  0.55453390  0.43132132     0.12100
H718        H  0.71428182  0.58134731  0.36304540     0.12100
C719        C  0.54821276  0.65469608  0.15390610    -0.14000
C720        C  0.53552742  0.61693955  0.14688543     0.08100
C721        C  0.53338007  0.60638054  0.11612708    -0.14000
C722        C  0.54316746  0.63299169  0.09293969    -0.14000
C723        C  0.55528335  0.67063706  0.10008031     0.08100
C724        C  0.55794427  0.68115154  0.13084795    -0.14000
H725        H  0.55052428  0.66393248  0.17728060     0.12100
H726        H  0.52391166  0.57751585  0.10991525     0.12100
H727        H  0.54052063  0.62395397  0.06948056     0.12100
H728        H  0.56726121  0.70993193  0.13724649     0.12100
C729        C  0.54244954  0.60940868  0.38502925    -0.14000
C730        C  0.54508981  0.61964802  0.35419090     0.08100
C731        C  0.56054025  0.65783647  0.34686374    -0.14000
C732        C  0.57147777  0.68485264  0.36973671    -0.14000
C733        C  0.56734424  0.67447104  0.40059353     0.08100
C734        C  0.55346848  0.63653508  0.40798211    -0.14000
H735        H  0.53113662  0.58031557  0.39150626     0.12100
H736        H  0.56356035  0.66691363  0.32340102     0.12100
H737        H  0.58229697  0.71385283  0.36316550     0.12100
H738        H  0.54978968  0.62756769  0.43150015     0.12100
C739        C  0.34441155  0.44787227  0.15379191    -0.14000
C740        C  0.38217193  0.46042656  0.14707890     0.08100
C741        C  0.39297356  0.46214853  0.11644441    -0.14000
C742        C  0.36668474  0.45246608  0.09302312    -0.14000
C743        C  0.32913899  0.44091805  0.09982518     0.08100
C744        C  0.31826510  0.43822396  0.13049540    -0.14000
H745        H  0.33498687  0.44579938  0.17707486     0.12100
H746        H  0.42184050  0.47141056  0.11049398     0.12100
H747        H  0.37594709  0.45497410  0.06965374     0.12100
H748        H  0.28948587  0.42916300  0.13662247     0.12100
C749        C  0.31590962  0.42938706  0.37019981    -0.14000
C750        C  0.32618682  0.43270343  0.40104753     0.08100
C751        C  0.36393539  0.44539800  0.40840794    -0.14000
C752        C  0.39089301  0.45565563  0.38540307    -0.14000
C753        C  0.38065052  0.45339032  0.35455922     0.08100
C754        C  0.34271286  0.43953912  0.34731432    -0.14000
H755        H  0.28713367  0.41972667  0.36361623     0.12100
H756        H  0.37289004  0.44858072  0.43192229     0.12100
H757        H  0.41984389  0.46598724  0.39182914     0.12100
H758        H  0.33368119  0.43720861  0.32388198     0.12100
C759        C  0.88663493  0.56852655  0.12922158    -0.14000
C760        C  0.89019595  0.56104876  0.09858416     0.08100
C761        C  0.91114081  0.54366420  0.09144378    -0.14000
C762        C  0.92729634  0.53305950  0.11461309    -0.14000
C763        C  0.92286104  0.53972696  0.14534284     0.08100
C764        C  0.90270149  0.55797910  0.15227934    -0.14000
H765        H  0.87079517  0.58202044  0.13549084     0.12100
H766        H  0.91396521  0.53711028  0.06807535     0.12100
H767        H  0.94271697  0.51909650  0.10846796     0.12100
H768        H  0.89911452  0.56402095  0.17561133     0.12100
C769        C  0.93164985  0.54168067  0.38377661    -0.14000
C770        C  0.92192876  0.54142616  0.35303793     0.08100
C771        C  0.89588457  0.55276350  0.34565114    -0.14000
C772        C  0.87939328  0.56329368  0.36839662    -0.14000
C773        C  0.88848621  0.56281787  0.39919566     0.08100
C774        C  0.91516322  0.55233733  0.40659987    -0.14000
H775        H  0.95182269  0.53338938  0.39027439     0.12100
H776        H  0.88781949  0.55312876  0.32225686     0.12100
H777        H  0.85898629  0.57123998  0.36177956     0.12100
H778        H  0.92264192  0.55146274  0.43007975     0.12100
C779        C  0.89866403  0.34500291  0.15198951    -0.14000
C780        C  0.92253505  0.38311731  0.14534939    -0.00900
C781        C  0.93004049  0.39446371  0.11468220    -0.14000
C782        C  0.91298110  0.36831299  0.09120730    -0.14000
C783        C  0.88811359  0.33042363  0.09803728     0.08100
C784        C  0.88167297  0.31902790  0.12865149    -0.14000
H785        H  0.89264120  0.33517227  0.17527070     0.12100
H786        H  0.94857889  0.42364038  0.10877789     0.12100
H787        H  0.91836717  0.37790917  0.06784014     0.12100
H788        H  0.86294922  0.28993076  0.13470143     0.12100
C789        C  0.90246758  0.34173826  0.34536922    -0.14000
C790        C  0.92670023  0.37969839  0.35259987     0.08100
C791        C  0.93593061  0.38986181  0.38331002    -0.14000
C792        C  0.91963538  0.36299235  0.40634304    -0.14000
C793        C  0.89373964  0.32541387  0.39913303     0.08100
C794        C  0.88619442  0.31495788  0.36833592    -0.14000
H795        H  0.89519362  0.33275433  0.32197114     0.12100
H796        H  0.95503450  0.41876889  0.38966331     0.12100
H797        H  0.92615987  0.37198191  0.42980385     0.12100
H798        H  0.86668085  0.28617870  0.36190536     0.12100
C799        C  0.11967603  0.43564008  0.13077092    -0.14000
C800        C  0.11332944  0.44008066  0.09998284     0.08100
C801        C  0.08907781  0.45370209  0.09283468    -0.14000
C802        C  0.07231706  0.46353948  0.11600959    -0.14000
C803        C  0.07951592  0.45999443  0.14680385     0.08100
C804        C  0.10298485  0.44542382  0.15384532    -0.14000
H805        H  0.13810554  0.42510287  0.13716738     0.12100
H806        H  0.08383769  0.45772025  0.06938089     0.12100
H807        H  0.05415750  0.47444043  0.10975525     0.12100
H808        H  0.10885552  0.44189276  0.17724444     0.12100
C809        C  0.11472248  0.43042049  0.37025202    -0.14000
C810        C  0.11006102  0.43644634  0.40101591     0.08100
C811        C  0.08745380  0.45198171  0.40835457    -0.14000
C812        C  0.07112753  0.46260583  0.38531139    -0.14000
C813        C  0.07702293  0.45784001  0.35446458     0.08100
C814        C  0.09845116  0.44095870  0.34731392    -0.14000
H815        H  0.13167895  0.41821024  0.36378495     0.12100
H816        H  0.08345006  0.45715229  0.43183199     0.12100
H817        H  0.05447548  0.47518005  0.39167993     0.12100
H818        H  0.10314122  0.43625939  0.32389333     0.12100
C819        C  0.07602954  0.60596311  0.11571895    -0.14000
C820        C  0.08325069  0.61733556  0.14640913     0.08100
C821        C  0.10692894  0.65551436  0.15306652    -0.14000
C822        C  0.12333809  0.68161497  0.12970302    -0.14000
C823        C  0.11659370  0.67026369  0.09904066     0.08100
C824        C  0.09250264  0.63220099  0.09225119    -0.14000
H825        H  0.05782530  0.57672797  0.10977343     0.12100
H826        H  0.11288421  0.66535128  0.17636373     0.12100
H827        H  0.14167201  0.71080481  0.13575172     0.12100
H828        H  0.08711620  0.62258021  0.06888070     0.12100
C829        C  0.06652335  0.60957740  0.38429549    -0.14000
C830        C  0.07465521  0.61977520  0.35351229     0.08100
C831        C  0.09833167  0.65777866  0.34612273    -0.14000
C832        C  0.11472390  0.68470896  0.36894412    -0.14000
C833        C  0.10783055  0.67437059  0.39976345     0.08100
C834        C  0.08296472  0.63661918  0.40720469    -0.14000
H835        H  0.04806987  0.58058635  0.39076185     0.12100
H836        H  0.10492249  0.66674857  0.32267266     0.12100
H837        H  0.13364301  0.71356428  0.36236009     0.12100
H838        H  0.07722300  0.62771269  0.43072030     0.12100
C839        C  0.39462819  0.92874334  0.11540185    -0.14000
C840        C  0.38351300  0.92114391  0.14610103     0.08100
C841        C  0.34539024  0.89741739  0.15282824    -0.14000
C842        C  0.31917742  0.88086315  0.12953856    -0.14000
C843        C  0.33032938  0.88745311  0.09884987     0.08100
C844        C  0.36826650  0.91207216  0.09198652    -0.14000
H845        H  0.42377509  0.94720329  0.10941659     0.12100
H846        H  0.33569541  0.89134955  0.17614174     0.12100
H847        H  0.29009692  0.86231241  0.13568663     0.12100
H848        H  0.37774612  0.91759771  0.06859965     0.12100
C849        C  0.39112028  0.93413976  0.38470192    -0.14000
C850        C  0.38129345  0.92497081  0.35393095     0.08100
C851        C  0.34374725  0.89934586  0.34652849    -0.14000
C852        C  0.31701785  0.88205260  0.36931262    -0.14000
C853        C  0.32707599  0.88999940  0.40013507     0.08100
C854        C  0.36424496  0.91681926  0.40759280    -0.14000
H855        H  0.41970499  0.95420563  0.39116951     0.12100
H856        H  0.33502965  0.89192989  0.32309561     0.12100
H857        H  0.28854722  0.86178984  0.36268540     0.12100
H858        H  0.37284133  0.92361786  0.43111193     0.12100
C859        C  0.53876518  0.93203965  0.11547075    -0.14000
C860        C  0.53677746  0.92040890  0.14592098     0.08100
C861        C  0.54610074  0.89281438  0.15266761    -0.14000
C862        C  0.55652846  0.87673498  0.12965631    -0.14000
C863        C  0.55772586  0.88754534  0.09910721     0.08100
C864        C  0.54914951  0.91573363  0.09225163    -0.14000
H865        H  0.53212695  0.95358990  0.10953037     0.12100
H866        H  0.54514147  0.88332540  0.17579581     0.12100
H867        H  0.56302922  0.85518501  0.13593403     0.12100
H868        H  0.54967823  0.92459908  0.06897839     0.12100
C869        C  0.55155233  0.89496068  0.34691517    -0.14000
C870        C  0.54059591  0.92134441  0.35404855     0.08100
C871        C  0.54104975  0.93143108  0.38474398    -0.14000
C872        C  0.55144213  0.91488279  0.40775582    -0.14000
C873        C  0.56151413  0.88783665  0.40056929     0.08100
C874        C  0.56184452  0.87845405  0.36982065    -0.14000
H875        H  0.55180468  0.88663797  0.32358632     0.12100
H876        H  0.53307964  0.95190622  0.39106283     0.12100
H877        H  0.55073070  0.92262964  0.43118474     0.12100
H878        H  0.56954015  0.85781366  0.36334571     0.12100
C879        C  0.65682564  0.10569651  0.15390630    -0.14000
C880        C  0.61951588  0.07895161  0.14692344     0.08100
C881        C  0.60972183  0.06821031  0.11634848    -0.14000
C882        C  0.63647229  0.08476007  0.09322445    -0.14000
C883        C  0.67349244  0.11240616  0.10022684     0.08100
C884        C  0.68343904  0.12212941  0.13091353    -0.14000
H885        H  0.66548881  0.11443412  0.17716744     0.12100
H886        H  0.58129710  0.04728473  0.11021136     0.12100
H887        H  0.62790095  0.07666025  0.06985437     0.12100
H888        H  0.71173587  0.14318826  0.13726484     0.12100
C889        C  0.60914484  0.06989919  0.38516952    -0.14000
C890        C  0.62010329  0.07536486  0.35440841     0.08100
C891        C  0.65850552  0.09615943  0.34734177    -0.14000
C892        C  0.68519384  0.11240941  0.37035798    -0.14000
C893        C  0.67416968  0.10832871  0.40101436     0.08100
C894        C  0.63594103  0.08622044  0.40826459    -0.14000
H895        H  0.57979639  0.05375085  0.39142368     0.12100
H896        H  0.66802642  0.10043664  0.32396022     0.12100
H897        H  0.71449708  0.12902108  0.36404002     0.12100
H898        H  0.62658992  0.08277393  0.43167159     0.12100
C899        C  0.45237965  0.10699626  0.15280475    -0.14000
C900        C  0.46375253  0.08086197  0.14625722     0.08100
C901        C  0.46381232  0.07040873  0.11570714    -0.14000
C902        C  0.45369216  0.08659341  0.09221318    -0.14000
C903        C  0.44334612  0.11355411  0.09883745     0.08100
C904        C  0.44228237  0.12304522  0.12946497    -0.14000
H905        H  0.45159636  0.11543922  0.17600125     0.12100
H906        H  0.47201347  0.04996526  0.10987432     0.12100
H907        H  0.45488925  0.07871473  0.06891307     0.12100
H908        H  0.43425234  0.14354960  0.13554084     0.12100
C909        C  0.44596754  0.10249257  0.34645168    -0.14000
C910        C  0.45800654  0.07697593  0.35367776     0.08100
C911        C  0.45808332  0.06720914  0.38435322    -0.14000
C912        C  0.44784046  0.08383700  0.40735956    -0.14000
C913        C  0.43735135  0.11056331  0.40012004     0.08100
C914        C  0.43579739  0.11905331  0.36934679    -0.14000
H915        H  0.44507247  0.11034351  0.32308801     0.12100
H916        H  0.46663932  0.04717239  0.39066552     0.12100
H917        H  0.44923414  0.07660113  0.43081384     0.12100
H918        H  0.42747001  0.13921657  0.36286057     0.12100
O919        O  0.46779710  0.07039854  0.80096415    -0.76000
O920        O  0.48327801  0.04003831  0.83637397    -0.54900
C921        C  0.47078887  0.06186538  0.82863110     0.77700
O922        O  0.40007962  0.92905881  0.69825814    -0.60600
O923        O  0.44567951  0.96164645  0.66315860    -0.53600
C924        C  0.41171272  0.93801731  0.67065221     0.69800
O925        O  0.39851981  0.93286323  0.80145255    -0.75100
O926        O  0.44452048  0.96206321  0.83700669    -0.55700
C927        C  0.41007400  0.94076054  0.82918303     0.75800
O928        O  0.47118802  0.07204970  0.69810626    -0.60300
O929        O  0.48569010  0.04047688  0.66313351    -0.53400
C930        C  0.47441390  0.06334183  0.67052076     0.72300
Zr931      Zr  0.48172319  0.05751278  0.74988439     2.54700
O932        O  0.42622079  0.06414582  0.74984720    -0.80900
O933        O  0.52252649  0.12547108  0.75021769    -0.94300
Zr934      Zr  0.42468854  0.94517659  0.75011108     2.64700
O935        O  0.36346683  0.94081671  0.74918796    -0.99200
O936        O  0.39490413  0.87704599  0.75261751    -0.81300
O937        O  0.45253186  0.00142447  0.77888663    -0.84600
O938        O  0.45233449  0.00124467  0.72112105    -2.19400
O939        O  0.60272697  0.07216320  0.69877756    -0.68000
O940        O  0.55716916  0.03988573  0.66351712    -0.52600
C941        C  0.59122090  0.06311543  0.67114367     0.70700
O942        O  0.53384805  0.93226457  0.80185275    -0.60900
O943        O  0.51840776  0.96246762  0.83742345    -0.52900
C944        C  0.53079618  0.94058163  0.82957953     0.72500
O945        O  0.53043165  0.92910753  0.69871419    -0.72300
O946        O  0.51738670  0.96144938  0.66342798    -0.51000
C947        C  0.52790383  0.93804973  0.67106197     0.73900
O948        O  0.60366872  0.06894401  0.80149523    -0.67700
O949        O  0.55741147  0.03930130  0.83672197    -0.54900
C950        C  0.59190985  0.06057534  0.82910298     0.72300
Zr951      Zr  0.57726343  0.05669984  0.75032661     2.77500
O952        O  0.63933544  0.06291431  0.74984654    -0.98400
O953        O  0.60470818  0.12457057  0.75199781    -0.79200
Zr954      Zr  0.52031443  0.94438146  0.75032293     2.70100
O955        O  0.57560994  0.93738006  0.75016346    -0.80500
O956        O  0.47986896  0.87639682  0.75047200    -0.99600
Zr957      Zr  0.50080529  0.00088884  0.80808040     2.21500
Zr958      Zr  0.50125753  0.00088314  0.69252345     2.11100
O959        O  0.54992156  0.00051098  0.72148861    -2.48300
O960        O  0.54934986  0.00053216  0.77921062    -0.80300
O961        O  0.53025270  0.05830806  0.72026126    -0.72500
O962        O  0.47180950  0.94351314  0.78003872    -2.33400
O963        O  0.52992498  0.05820665  0.78004523    -2.29600
O964        O  0.47198796  0.94360381  0.72042023    -0.74200
H965        H  0.43347334  0.00122751  0.70806829     0.77800
H966        H  0.46089649  0.92202570  0.79342416     0.78800
H967        H  0.56884492  0.00040069  0.70862230     0.81100
H968        H  0.54077260  0.07968784  0.79345880     0.78700
H969        H  0.38255389  0.86803595  0.73260882     0.41700
H970        H  0.49413718  0.86695433  0.73898466     0.40700
H971        H  0.59548475  0.96083937  0.74076592     0.40400
H972        H  0.63875200  0.04693949  0.73276472     0.38300
H973        H  0.63197289  0.13461260  0.74931236     0.41400
H974        H  0.50507933  0.13543665  0.75066475     0.36200
H975        H  0.40525810  0.03860089  0.74523943     0.42300
H976        H  0.36498931  0.95759547  0.73243130     0.38700
H977        H  0.65656082  0.08896969  0.74301732     0.43700
H978        H  0.53361796  0.13161954  0.72957848     0.42400
H979        H  0.34597413  0.91513698  0.74167219     0.42500
H980        H  0.48031030  0.86880942  0.77176336     0.42900
O981        O  0.06685234  0.60280538  0.80171660    -0.76000
O982        O  0.03831446  0.55669568  0.83721380    -0.54900
C983        C  0.05879803  0.59124597  0.82943108     0.77700
O984        O  0.93065014  0.53272652  0.69837090    -0.60600
O985        O  0.96222040  0.51810585  0.66350597    -0.53600
C986        C  0.93960016  0.52975619  0.67080997     0.69800
O987        O  0.93221834  0.53402140  0.80174325    -0.75100
O988        O  0.96158671  0.51753515  0.83730190    -0.55700
C989        C  0.94015910  0.53044991  0.82947575     0.75800
O990        O  0.07343236  0.60136489  0.69861185    -0.60300
O991        O  0.04120685  0.55550053  0.66351198    -0.53400
C992        C  0.06469271  0.58953887  0.67096534     0.72300
Zr993      Zr  0.05733394  0.57626104  0.75048965     2.54700
O994        O  0.06770431  0.63981790  0.74749231    -0.80900
O995        O  0.12474911  0.60189667  0.75488024    -0.94300
Zr996      Zr  0.94509679  0.52150385  0.75008557     2.64700
O997        O  0.94156248  0.57887311  0.75057118    -0.99200
O998        O  0.87687236  0.48359376  0.74991073    -0.81300
O999        O  0.00111256  0.54947686  0.77923255    -0.84600
O1000       O  0.00137810  0.54984371  0.72142471    -2.19400
O1001       O  0.07107171  0.46931284  0.69885637    -0.68000
O1002       O  0.03941914  0.48335680  0.66360421    -0.52600
C1003       C  0.06225688  0.47208742  0.67119275     0.70700
O1004       O  0.93368516  0.39802057  0.80134750    -0.60900
O1005       O  0.96205617  0.44395121  0.83706926    -0.52900
C1006       C  0.94154201  0.40943641  0.82913707     0.72500
O1007       O  0.92892003  0.39906912  0.69817692    -0.72300
O1008       O  0.96110169  0.44505483  0.66323493    -0.51000
C1009       C  0.93806955  0.41086245  0.67057839     0.73900
O1010       O  0.06838783  0.46615864  0.80224196    -0.67700
O1011       O  0.03989031  0.48393540  0.83756799    -0.54900
C1012       C  0.06089883  0.47041654  0.82995466     0.72300
Zr1013     Zr  0.05585882  0.47941452  0.75062094     2.77500
O1014       O  0.06035854  0.42256911  0.75091367    -0.98400
O1015       O  0.12383438  0.51940780  0.75167776    -0.79200
Zr1016     Zr  0.94346035  0.42455118  0.75006691     2.70100
O1017       O  0.93190173  0.36052854  0.74793085    -0.80500
O1018       O  0.87598329  0.39946388  0.75304252    -0.99600
Zr1019     Zr  0.00037770  0.50032947  0.80824942     2.21500
Zr1020     Zr  0.00059235  0.50041834  0.69267566     2.11100
O1021       O  0.99979833  0.45106820  0.72154071    -2.48300
O1022       O  0.99950262  0.45121504  0.77918415    -0.80300
O1023       O  0.05774318  0.52837151  0.72075185    -0.72500
O1024       O  0.94313349  0.47240865  0.77994852    -2.33400
O1025       O  0.05772290  0.52845382  0.78038194    -2.29600
O1026       O  0.94304482  0.47238651  0.72019800    -0.74200
H1027       H  0.00190115  0.56902256  0.70843031     0.77800
H1028       H  0.92163056  0.46176668  0.79335526     0.78800
H1029       H  0.99958713  0.43198143  0.70860726     0.81100
H1030       H  0.07919663  0.53909594  0.79390226     0.78700
H1031       H  0.86997955  0.47608631  0.77138758     0.41700
H1032       H  0.86560386  0.38218623  0.73545922     0.40700
H1033       H  0.95686599  0.36314581  0.75140801     0.40400
H1034       H  0.04158826  0.40578791  0.73577892     0.38300
H1035       H  0.12978803  0.53519994  0.73323640     0.41400
H1036       H  0.13377554  0.62562196  0.76633456     0.36200
H1037       H  0.04289013  0.63640689  0.74187770     0.42300
H1038       H  0.95985701  0.59523855  0.73501729     0.38700
H1039       H  0.08496153  0.43000461  0.74151129     0.43700
H1040       H  0.13442991  0.60998217  0.73400005     0.42400
H1041       H  0.91668958  0.57157650  0.74174474     0.42500
H1042       H  0.86791228  0.38271679  0.77101178     0.42900
O1043       O  0.39818079  0.46537881  0.80202477    -0.76000
O1044       O  0.44412703  0.48198778  0.83756740    -0.54900
C1045       C  0.40965107  0.46847249  0.82971972     0.77700
O1046       O  0.47139545  0.40024996  0.69827076    -0.60600
O1047       O  0.48505556  0.44603617  0.66323617    -0.53600
C1048       C  0.47439323  0.41198657  0.67063687     0.69800
O1049       O  0.46573149  0.39800079  0.80155427    -0.75100
O1050       O  0.48178931  0.44363166  0.83731587    -0.55700
C1051       C  0.46865076  0.40926433  0.82929571     0.75800
O1052       O  0.39895750  0.47082230  0.69953700    -0.60300
O1053       O  0.44465509  0.48445647  0.66440071    -0.53400
C1054       C  0.41056529  0.47350796  0.67191336     0.72300
Zr1055     Zr  0.42490770  0.48125260  0.75099235     2.54700
O1056       O  0.36176750  0.42700087  0.74955689    -0.80900
O1057       O  0.40020015  0.52392048  0.75386558    -0.94300
Zr1058     Zr  0.48050173  0.42453945  0.75041064     2.64700
O1059       O  0.42428330  0.36260673  0.74995209    -0.99200
O1060       O  0.51913264  0.39511895  0.75109079    -0.81300
O1061       O  0.45208359  0.45207969  0.77944673    -0.84600
O1062       O  0.45147470  0.45182441  0.72193013    -2.19400
O1063       O  0.53091779  0.60224298  0.69950490    -0.68000
O1064       O  0.51663301  0.55631939  0.66437713    -0.52600
C1065       C  0.52776173  0.59041579  0.67188833     0.70700
O1066       O  0.60305906  0.53653871  0.80234443    -0.60900
O1067       O  0.55701965  0.51832729  0.83794540    -0.52900
C1068       C  0.59158800  0.53276852  0.83008556     0.72500
O1069       O  0.60231846  0.53144488  0.69936678    -0.72300
O1070       O  0.55635649  0.51699188  0.66422771    -0.51000
C1071       C  0.59049742  0.52810612  0.67172083     0.73900
O1072       O  0.53620292  0.60283429  0.80277153    -0.67700
O1073       O  0.51919516  0.55663007  0.83812297    -0.54900
C1074       C  0.53282979  0.59117023  0.83043975     0.72300
Zr1075     Zr  0.52130466  0.57710028  0.75126689     2.77500
O1076       O  0.57765871  0.63899281  0.75054598    -0.98400
O1077       O  0.48185404  0.60548868  0.75349327    -0.79200
Zr1078     Zr  0.57682280  0.52073934  0.75103086     2.70100
O1079       O  0.63974509  0.57539163  0.74996858    -0.80500
O1080       O  0.60360314  0.47988749  0.75340081    -0.99600
Zr1081     Zr  0.50073971  0.50040927  0.80884258     2.21500
Zr1082     Zr  0.50065455  0.50086487  0.69329753     2.11100
O1083       O  0.54985105  0.54982017  0.72217935    -2.48300
O1084       O  0.54960715  0.54934084  0.78007846    -0.80300
O1085       O  0.47249679  0.52983444  0.72126119    -0.72500
O1086       O  0.52924608  0.47177890  0.78063940    -2.33400
O1087       O  0.47251912  0.52957896  0.78107015    -2.29600
O1088       O  0.52934645  0.47223888  0.72098387    -0.74200
H1089       H  0.43246854  0.43290404  0.70892869     0.77800
H1090       H  0.53995162  0.46100920  0.79409905     0.78800
H1091       H  0.56881419  0.56879776  0.70923000     0.81100
H1092       H  0.46190135  0.54033185  0.79464014     0.78700
H1093       H  0.53039582  0.40026361  0.77167618     0.41700
H1094       H  0.59330914  0.46347180  0.73531558     0.40700
H1095       H  0.63584503  0.59697063  0.75342789     0.40400
H1096       H  0.59443222  0.63688661  0.73553498     0.38300
H1097       H  0.47022852  0.60099193  0.73306750     0.41400
H1098       H  0.37308471  0.50743468  0.75798757     0.36200
H1099       H  0.36546915  0.40524582  0.75268956     0.42300
H1100       H  0.40878083  0.36345026  0.73308427     0.38700
H1101       H  0.56987110  0.65569326  0.74078405     0.43700
H1102       H  0.40129868  0.53263591  0.73270412     0.42400
H1103       H  0.43294861  0.34543564  0.74272712     0.42500
H1104       H  0.63050983  0.49660040  0.74864144     0.42900
O1105       O  0.79065010  0.47214087  0.48772808    -0.76000
O1106       O  0.85215654  0.51641870  0.49493908    -0.54900
C1107       C  0.82575473  0.48266138  0.99263964     0.77700
O1108       O  0.73397644  0.57675737  0.91546498    -0.60600
O1109       O  0.69439193  0.57441501  0.95268410    -0.53600
C1110       C  0.70313403  0.57426734  0.92457158     0.69800
O1111       O  0.84008802  0.57198166  0.91542436    -0.75100
O1112       O  0.87994910  0.57337270  0.95200763    -0.55700
C1113       C  0.86917539  0.57059009  0.92415211     0.75800
O1114       O  0.68198966  0.47200587  0.99323865    -0.60300
O1115       O  0.66503528  0.51676467  0.99740490    -0.53400
C1116       C  0.65744061  0.48258020  0.99388873     0.72300
Zr1117     Zr  0.74866864  0.49694343  0.49547739     2.54700
O1118       O  0.72232898  0.44488999  0.96290039    -0.80900
O1119       O  0.72729251  0.45149721  0.53680445    -0.94300
Zr1120     Zr  0.79018206  0.58016062  0.93653624     2.64700
O1121       O  0.77052487  0.54000534  0.89161081    -0.99200
O1122       O  0.81848437  0.63541762  0.90394818    -0.81300
O1123       O  0.80023346  0.53792907  0.96623007    -0.84600
O1124       O  0.73809940  0.53778689  0.96636122    -2.19400
O1125       O  0.72908289  0.56299775  0.58404959    -0.68000
O1126       O  0.69170897  0.56713365  0.54789741    -0.52600
C1127       C  0.69906581  0.56264255  0.57556753     0.70700
O1128       O  0.89750234  0.68212338  0.00586693    -0.60900
O1129       O  0.90945390  0.63352760  0.00459749    -0.52900
C1130       C  0.91968506  0.66810464  0.50543457     0.72500
O1131       O  0.78548311  0.68217871  0.00403734    -0.72300
O1132       O  0.72484860  0.63342744  0.00430282    -0.51000
C1133       C  0.74890720  0.66776533  0.50605505     0.73900
O1134       O  0.83957932  0.56857458  0.58375303    -0.67700
O1135       O  0.87753154  0.56787991  0.54638048    -0.54900
C1136       C  0.86810901  0.56660468  0.57449892     0.72300
Zr1137     Zr  0.78660261  0.57093191  0.56252209     2.77500
O1138       O  0.80842876  0.61912825  0.60172538    -0.98400
O1139       O  0.76445653  0.52215582  0.60125339    -0.79200
Zr1140     Zr  0.82843569  0.65593069  0.00170343     2.70100
O1141       O  0.85179903  0.70287799  0.54305295    -0.80500
O1142       O  0.85159145  0.69981600  0.95933922    -0.99600
Zr1143     Zr  0.85095974  0.57530267  0.99959541     2.21500
Zr1144     Zr  0.72525739  0.57524183  0.00015674     2.11100
O1145       O  0.77574739  0.61310635  0.53371497    -2.48300
O1146       O  0.83910757  0.61328206  0.53313008    -0.80300
O1147       O  0.73538617  0.53269709  0.53011818    -0.72500
O1148       O  0.84171457  0.61805937  0.96868760    -2.33400
O1149       O  0.79846326  0.53244936  0.52962160    -2.29600
O1150       O  0.77688071  0.61795427  0.96904171    -0.74200
H1151       H  0.71704643  0.52264642  0.95318693     0.77800
H1152       H  0.86374490  0.63364025  0.95661125     0.78800
H1153       H  0.76888028  0.62707846  0.54734861     0.81100
H1154       H  0.80396966  0.51577938  0.54111567     0.78700
H1155       H  0.83650921  0.63232029  0.89112842     0.41700
H1156       H  0.82878832  0.69804285  0.95017016     0.40700
H1157       H  0.83531047  0.69038280  0.56072877     0.40400
H1158       H  0.80875916  0.60607907  0.62054449     0.38300
H1159       H  0.75331822  0.49833371  0.58966085     0.41400
H1160       H  0.71439414  0.42675372  0.52652092     0.36200
H1161       H  0.73359110  0.45600331  0.94296407     0.42300
H1162       H  0.74450658  0.51991060  0.89600092     0.38700
H1163       H  0.83524544  0.63622898  0.59691375     0.43700
H1164       H  0.70682622  0.45368559  0.54660477     0.42400
H1165       H  0.76799146  0.55519724  0.87531502     0.42500
H1166       H  0.86464867  0.72488934  0.96908538     0.42900
O1167       O  0.68219716  0.21057987  0.48977373    -0.76000
O1168       O  0.66464275  0.14903974  0.49681208    -0.54900
C1169       C  0.65687299  0.17517413  0.99132742     0.77700
O1170       O  0.84215203  0.26754376  0.91509173    -0.60600
O1171       O  0.88037514  0.30711869  0.95204655    -0.53600
C1172       C  0.87088430  0.29839102  0.92401932     0.69800
O1173       O  0.73225602  0.15959003  0.91549952    -0.75100
O1174       O  0.69343260  0.12093892  0.95257924    -0.55700
C1175       C  0.70172469  0.13077419  0.92455638     0.75800
O1176       O  0.78975785  0.31931619  0.99166025    -0.60300
O1177       O  0.85147177  0.33652674  0.99664753    -0.53400
C1178       C  0.82490310  0.34402756  0.99263315     0.72300
Zr1179     Zr  0.74911844  0.25258141  0.49616924     2.54700
O1180       O  0.72374430  0.27773987  0.95956931    -0.80900
O1181       O  0.72559490  0.27403170  0.53775545    -0.94300
Zr1182     Zr  0.78957100  0.21086245  0.93625994     2.64700
O1183       O  0.76725249  0.23019264  0.89228447    -0.99200
O1184       O  0.81549102  0.18134290  0.90404492    -0.81300
O1185       O  0.73727817  0.20047642  0.96607540    -0.84600
O1186       O  0.79959335  0.26316589  0.96573573    -2.19400
O1187       O  0.83832875  0.27196901  0.58295967    -0.68000
O1188       O  0.87714589  0.31074696  0.54602322    -0.52600
C1189       C  0.86701781  0.30257297  0.57400051     0.70700
O1190       O  0.78455512  0.10422495  0.00481108    -0.60900
O1191       O  0.72393093  0.09210648  0.00422762    -0.52900
C1192       C  0.74944661  0.08197479  0.50569240     0.72500
O1193       O  0.89672326  0.21583292  0.00379754    -0.72300
O1194       O  0.90860700  0.27639645  0.00328752    -0.51000
C1195       C  0.91959683  0.25246975  0.50443114     0.73900
O1196       O  0.73148959  0.16391836  0.58432474    -0.67700
O1197       O  0.69223558  0.12488553  0.54766239    -0.54900
C1198       C  0.70069447  0.13520642  0.57560001     0.72300
Zr1199     Zr  0.78742992  0.21496027  0.56197454     2.77500
O1200       O  0.81427315  0.18929979  0.59741036    -0.98400
O1201       O  0.76481519  0.23792484  0.60313497    -0.79200
Zr1202     Zr  0.82761537  0.17329194  0.00138535     2.70100
O1203       O  0.85243738  0.15104626  0.54162743    -0.80500
O1204       O  0.84913783  0.15096583  0.95896268    -0.99600
Zr1205     Zr  0.72443971  0.15061633  0.00011727     2.21500
Zr1206     Zr  0.85013694  0.27642607  0.99936679     2.11100
O1207       O  0.83950899  0.22628412  0.53187049    -2.48300
O1208       O  0.77594018  0.16220258  0.53248292    -0.80300
O1209       O  0.79910720  0.26604527  0.52987146    -0.72500
O1210       O  0.77611094  0.15986111  0.96888442    -2.33400
O1211       O  0.73612081  0.20326903  0.53030301    -2.29600
O1212       O  0.84096170  0.22455299  0.96849608    -0.74200
H1213       H  0.80546918  0.28408718  0.95245517     0.77800
H1214       H  0.76948792  0.13770879  0.95691276     0.78800
H1215       H  0.86074036  0.23328775  0.54509933     0.81100
H1216       H  0.71434918  0.19802733  0.54227362     0.78700
H1217       H  0.80513609  0.18071255  0.88358175     0.41700
H1218       H  0.87040398  0.17394945  0.95016969     0.40700
H1219       H  0.85465489  0.16661771  0.55953576     0.40400
H1220       H  0.83730530  0.21135112  0.60532570     0.38300
H1221       H  0.74376663  0.23974051  0.59406349     0.41400
H1222       H  0.71331719  0.28652513  0.52759418     0.36200
H1223       H  0.73416698  0.27538207  0.93994296     0.42300
H1224       H  0.77268405  0.25594022  0.89714180     0.38700
H1225       H  0.79681108  0.18040485  0.61491440     0.43700
H1226       H  0.74839138  0.29479825  0.54725465     0.42400
H1227       H  0.78479180  0.23348418  0.87560379     0.42500
H1228       H  0.86094781  0.13774224  0.96867280     0.42900
O1229       O  0.31898846  0.78890533  0.48891308    -0.76000
O1230       O  0.33653455  0.85044285  0.49619257    -0.54900
C1231       C  0.34430144  0.82543443  0.99011024     0.77700
O1232       O  0.15691090  0.73330382  0.91509163    -0.60600
O1233       O  0.12010908  0.69323186  0.95234163    -0.53600
C1234       C  0.12872053  0.70221819  0.92425237     0.69800
O1235       O  0.26845580  0.83996551  0.91522488    -0.75100
O1236       O  0.30759526  0.87924390  0.95189434    -0.55700
C1237       C  0.29924805  0.86882112  0.92400382     0.75800
O1238       O  0.21144064  0.68081758  0.99004852    -0.60300
O1239       O  0.14992811  0.66377419  0.99642882    -0.53400
C1240       C  0.17633513  0.65618272  0.99179167     0.72300
Zr1241     Zr  0.25202394  0.74758407  0.49495356     2.54700
O1242       O  0.27720623  0.72331708  0.95669210    -0.80900
O1243       O  0.27653796  0.72491198  0.53494802    -0.94300
Zr1244     Zr  0.20993302  0.79001526  0.93598813     2.64700
O1245       O  0.22846641  0.77277802  0.88875285    -0.99200
O1246       O  0.18183670  0.82026347  0.90723929    -0.81300
O1247       O  0.26282272  0.79984917  0.96478124    -0.84600
O1248       O  0.20073580  0.73731595  0.96469206    -2.19400
O1249       O  0.16532902  0.72800994  0.58315010    -0.68000
O1250       O  0.12509883  0.68993210  0.54652520    -0.52600
C1251       C  0.13622390  0.69765768  0.57436072     0.70700
O1252       O  0.21655491  0.89626429  0.00540626    -0.60900
O1253       O  0.27707748  0.90814387  0.00451858    -0.52900
C1254       C  0.25308570  0.91861921  0.50642405     0.72500
O1255       O  0.10476135  0.78420762  0.00499656    -0.72300
O1256       O  0.09243442  0.72345161  0.00381057    -0.51000
C1257       C  0.08201005  0.74854355  0.50396011     0.73900
O1258       O  0.27148107  0.83647656  0.58361393    -0.67700
O1259       O  0.31023392  0.87587105  0.54699660    -0.54900
C1260       C  0.30214382  0.86529727  0.57490959     0.72300
Zr1261     Zr  0.21522954  0.78524793  0.56182783     2.77500
O1262       O  0.18782777  0.80732193  0.59986950    -0.98400
O1263       O  0.23970492  0.76336431  0.60239354    -0.79200
Zr1264     Zr  0.17386976  0.82714376  0.00264444     2.70100
O1265       O  0.14993821  0.84939680  0.54290953    -0.80500
O1266       O  0.15017210  0.85030253  0.96239831    -0.99600
Zr1267     Zr  0.27689245  0.84973862  0.99932569     2.21500
Zr1268     Zr  0.15108609  0.72379055  0.99946518     2.11100
O1269       O  0.16272588  0.77448716  0.53241444    -2.48300
O1270       O  0.22630334  0.83810116  0.53265958    -0.80300
O1271       O  0.20282089  0.73413311  0.52949808    -0.72500
O1272       O  0.22458824  0.84096606  0.96905967    -2.33400
O1273       O  0.26590039  0.79686304  0.52947397    -2.29600
O1274       O  0.15956150  0.77597191  0.96936079    -0.74200
H1275       H  0.19457903  0.71648642  0.95124382     0.77800
H1276       H  0.23102627  0.86321206  0.95730440     0.78800
H1277       H  0.14165230  0.76756612  0.54580134     0.81100
H1278       H  0.28781506  0.80198466  0.54120012     0.78700
H1279       H  0.20328878  0.84192339  0.89720815     0.41700
H1280       H  0.13326100  0.82769981  0.95034160     0.40700
H1281       H  0.16421562  0.84961374  0.56110623     0.40400
H1282       H  0.19195173  0.79794608  0.61940124     0.38300
H1283       H  0.25355568  0.75286815  0.59171881     0.41400
H1284       H  0.28143130  0.70636814  0.52469851     0.36200
H1285       H  0.27360561  0.73311086  0.93717644     0.42300
H1286       H  0.22268175  0.74657189  0.89182893     0.38700
H1287       H  0.20495191  0.83484044  0.60072829     0.43700
H1288       H  0.25470140  0.70962445  0.54826137     0.42400
H1289       H  0.21006896  0.77102713  0.87337748     0.42500
H1290       H  0.13311927  0.85704364  0.97293122     0.42900
O1291       O  0.57022937  0.83814201  0.91549247    -0.76000
O1292       O  0.57226810  0.87857254  0.95183879    -0.54900
C1293       C  0.56895946  0.86738229  0.92405327     0.77700
O1294       O  0.47136103  0.68081686  0.99307707    -0.60600
O1295       O  0.51627937  0.66420000  0.99777366    -0.53600
C1296       C  0.48206643  0.65638778  0.99424845     0.69800
O1297       O  0.47131126  0.78869760  0.49062773    -0.75100
O1298       O  0.51549131  0.85043572  0.49708584    -0.55700
C1299       C  0.48187440  0.82495504  0.99122053     0.75800
O1300       O  0.57618162  0.73306846  0.91643546    -0.60300
O1301       O  0.57440123  0.69353236  0.95348138    -0.53400
C1302       C  0.57375872  0.70217530  0.92542485     0.72300
Zr1303     Zr  0.58121481  0.79019831  0.93716667     2.54700
O1304       O  0.54801736  0.77066094  0.88884393    -0.80900
O1305       O  0.64044208  0.82243737  0.90969886    -0.94300
Zr1306     Zr  0.49701860  0.74740206  0.49670691     2.64700
O1307       O  0.44830447  0.72304248  0.95739182    -0.99200
O1308       O  0.44885994  0.72409886  0.53598130    -0.81300
O1309       O  0.53794913  0.79980136  0.96574696    -0.84600
O1310       O  0.53792426  0.73763500  0.96612055    -2.19400
O1311       O  0.68142568  0.78520110  0.00421870    -0.68000
O1312       O  0.63278221  0.72450546  0.00468882    -0.52600
C1313       C  0.66891606  0.74975533  0.50578382     0.70700
O1314       O  0.56792879  0.83764496  0.58466717    -0.60900
O1315       O  0.56778224  0.87638603  0.54779071    -0.52900
C1316       C  0.56588436  0.86625659  0.57577224     0.72500
O1317       O  0.56459773  0.72842644  0.58390884    -0.72300
O1318       O  0.56797267  0.69075900  0.54768230    -0.51000
C1319       C  0.56394451  0.69831933  0.57538404     0.73900
O1320       O  0.68120492  0.89706550  0.00560720    -0.67700
O1321       O  0.63253900  0.90886593  0.00356791    -0.54900
C1322       C  0.66786017  0.91943996  0.50587186     0.72300
Zr1323     Zr  0.65496836  0.82791941  0.00374581     2.77500
O1324       O  0.69913133  0.85047514  0.54647583    -0.98400
O1325       O  0.70496918  0.85347613  0.96607298    -0.79200
Zr1326     Zr  0.57238755  0.78609181  0.56315360     2.70100
O1327       O  0.62443592  0.80995339  0.59901485    -0.80500
O1328       O  0.52807369  0.76564818  0.60531152    -0.99600
Zr1329     Zr  0.57421365  0.85013522  0.99981581     2.21500
Zr1330     Zr  0.57449250  0.72452492  0.00060638     2.11100
O1331       O  0.61387065  0.77504543  0.53384363    -2.48300
O1332       O  0.61370536  0.83900422  0.53383321    -0.80300
O1333       O  0.61805560  0.77668956  0.97039107    -0.72500
O1334       O  0.53294405  0.79722276  0.53079129    -2.33400
O1335       O  0.61789878  0.84135376  0.96990230    -2.29600
O1336       O  0.53358854  0.73477187  0.53098396    -0.74200
H1337       H  0.52302516  0.71662390  0.95284617     0.77800
H1338       H  0.51625129  0.80239173  0.54258298     0.78800
H1339       H  0.62796193  0.76808762  0.54725827     0.81100
H1340       H  0.63364731  0.86348623  0.95798276     0.78700
H1341       H  0.45790269  0.71310724  0.55154582     0.41700
H1342       H  0.50971612  0.73892505  0.60110947     0.40700
H1343       H  0.63772772  0.83755354  0.59631846     0.40400
H1344       H  0.68993070  0.82868177  0.56036240     0.38300
H1345       H  0.69789320  0.83271258  0.95141115     0.41400
H1346       H  0.63903476  0.84217727  0.89789280     0.36200
H1347       H  0.52115913  0.75635219  0.89459139     0.42300
H1348       H  0.45604249  0.70957586  0.94310133     0.38700
H1349       H  0.72283789  0.85356947  0.53810710     0.43700
H1350       H  0.63855295  0.80407459  0.89423380     0.42400
H1351       H  0.42576512  0.70297499  0.96770291     0.42500
H1352       H  0.54250585  0.76513629  0.62315468     0.42900
O1353       O  0.21089731  0.52825226  0.48943452    -0.76000
O1354       O  0.14954257  0.48448065  0.49776995    -0.54900
C1355       C  0.17667635  0.51831006  0.99217635     0.77700
O1356       O  0.26789531  0.42444057  0.91599091    -0.60600
O1357       O  0.30775668  0.42640296  0.95280826    -0.53600
C1358       C  0.29888772  0.42704493  0.92479770     0.69800
O1359       O  0.16146196  0.42872766  0.91537480    -0.75100
O1360       O  0.12287332  0.42878583  0.95252682    -0.55700
C1361       C  0.13292642  0.43090973  0.92452318     0.75800
O1362       O  0.31997274  0.52875930  0.49354464    -0.60300
O1363       O  0.33691385  0.48336037  0.99800051    -0.53400
C1364       C  0.34467861  0.51769104  0.99523291     0.72300
Zr1365     Zr  0.25261261  0.50319250  0.49742554     2.54700
O1366       O  0.28093066  0.55246089  0.96001096    -0.80900
O1367       O  0.27248056  0.54805682  0.53921009    -0.94300
Zr1368     Zr  0.21130954  0.42040110  0.93672489     2.64700
O1369       O  0.23117026  0.45907794  0.89098802    -0.99200
O1370       O  0.18116779  0.36357397  0.90592809    -0.81300
O1371       O  0.20171014  0.46283810  0.96655707    -0.84600
O1372       O  0.26362028  0.46248046  0.96660748    -2.19400
O1373       O  0.27140479  0.43538468  0.58458029    -0.68000
O1374       O  0.30848510  0.43111454  0.54824373    -0.52600
C1375       C  0.30122868  0.43549965  0.57597206     0.70700
O1376       O  0.10378714  0.31841948  0.00419834    -0.60900
O1377       O  0.09256409  0.36751745  0.00386210    -0.52900
C1378       C  0.08149492  0.33277454  0.50562239     0.72500
O1379       O  0.21510477  0.31766600  0.00323885    -0.72300
O1380       O  0.27587715  0.36620046  0.00391066    -0.51000
C1381       C  0.25116079  0.33155997  0.50481459     0.73900
O1382       O  0.16223529  0.43141876  0.58490018    -0.67700
O1383       O  0.12439721  0.43279258  0.54773954    -0.54900
C1384       C  0.13397976  0.43401870  0.57581030     0.72300
Zr1385     Zr  0.21394362  0.42730374  0.56305915     2.77500
O1386       O  0.18960960  0.37505830  0.59865938    -0.98400
O1387       O  0.23524814  0.47376412  0.60363494    -0.79200
Zr1388     Zr  0.17289947  0.34458548  0.00158872     2.70100
O1389       O  0.14839750  0.29905648  0.54356404    -0.80500
O1390       O  0.14914751  0.29912535  0.96022868    -0.99600
Zr1391     Zr  0.15131021  0.42581963  0.00015493     2.21500
Zr1392     Zr  0.27648442  0.42492062  0.00017297     2.11100
O1393       O  0.22491516  0.38584969  0.53337112    -2.48300
O1394       O  0.16155164  0.38619581  0.53311320    -0.80300
O1395       O  0.26548033  0.46636785  0.53126761    -0.72500
O1396       O  0.15999020  0.38299653  0.96899790    -2.33400
O1397       O  0.20283107  0.46702886  0.53115279    -2.29600
O1398       O  0.22458274  0.38248991  0.96903709    -0.74200
H1399       H  0.28475283  0.47766642  0.95355241     0.77800
H1400       H  0.13787315  0.36765312  0.95690643     0.78800
H1401       H  0.23165862  0.37147731  0.54666446     0.81100
H1402       H  0.19755187  0.48360620  0.54301005     0.78700
H1403       H  0.20142921  0.35804343  0.90128628     0.41700
H1404       H  0.17189976  0.30176768  0.95024646     0.40700
H1405       H  0.17003830  0.30677417  0.55739153     0.40400
H1406       H  0.19682070  0.38711707  0.61892867     0.38300
H1407       H  0.23731663  0.49643329  0.59391788     0.41400
H1408       H  0.27327768  0.57054085  0.53029992     0.36200
H1409       H  0.28632521  0.54080269  0.94247189     0.42300
H1410       H  0.25751819  0.47876895  0.89489212     0.38700
H1411       H  0.16201207  0.36393148  0.59778701     0.43700
H1412       H  0.29913999  0.55575844  0.54272140     0.42400
H1413       H  0.23275369  0.44299180  0.87498169     0.42500
H1414       H  0.13770173  0.27440401  0.97048807     0.42900
O1415       O  0.42814936  0.16037956  0.91526284    -0.76000
O1416       O  0.42908854  0.12169199  0.95186860    -0.54900
C1417       C  0.43085025  0.13201571  0.92400626     0.77700
O1418       O  0.52996418  0.31975341  0.99072345    -0.60600
O1419       O  0.48540026  0.33660883  0.99693106    -0.53600
C1420       C  0.51947763  0.34431454  0.99253421     0.69800
O1421       O  0.52933957  0.21100633  0.49011994    -0.75100
O1422       O  0.48525014  0.14923611  0.49619679    -0.55700
C1423       C  0.51902840  0.17543135  0.99026306     0.75800
O1424       O  0.42425257  0.26650028  0.91444016    -0.60300
O1425       O  0.42710854  0.30651995  0.95156046    -0.53400
C1426       C  0.42726618  0.29761679  0.92348802     0.72300
Zr1427     Zr  0.41903995  0.20981330  0.93612923     2.54700
O1428       O  0.45225171  0.22727710  0.88775171    -0.80900
O1429       O  0.35997393  0.17940858  0.90826985    -0.94300
Zr1430     Zr  0.50336694  0.25221146  0.49520075     2.64700
O1431       O  0.55203296  0.27547051  0.95511335    -0.99200
O1432       O  0.55299854  0.27681230  0.53325853    -0.81300
O1433       O  0.46245495  0.20044283  0.96474325    -0.84600
O1434       O  0.46289887  0.26281410  0.96457435    -2.19400
O1435       O  0.31968884  0.21539639  0.00377135    -0.68000
O1436       O  0.36816298  0.27624099  0.00401661    -0.52600
C1437       C  0.33216874  0.25077603  0.50532782     0.70700
O1438       O  0.43397590  0.16256016  0.58332002    -0.60900
O1439       O  0.43422088  0.12372631  0.54657232    -0.52900
C1440       C  0.43630745  0.13406107  0.57448801     0.72500
O1441       O  0.43674533  0.27197362  0.58382403    -0.72300
O1442       O  0.43358429  0.30946042  0.54725958    -0.51000
C1443       C  0.43761518  0.30215696  0.57504214     0.73900
O1444       O  0.31941581  0.10356906  0.00592137    -0.67700
O1445       O  0.36822688  0.09201262  0.00420280    -0.54900
C1446       C  0.33335975  0.08078779  0.50675462     0.72300
Zr1447     Zr  0.34611789  0.17276109  0.00297036     2.77500
O1448       O  0.30119671  0.15117839  0.54548459    -0.98400
O1449       O  0.29694414  0.14761794  0.96444652    -0.79200
Zr1450     Zr  0.42918497  0.21435369  0.56252440     2.70100
O1451       O  0.37868480  0.19166685  0.59974284    -0.80500
O1452       O  0.47561989  0.23397075  0.60311159    -0.99600
Zr1453     Zr  0.42678298  0.15052345  0.99928643     2.21500
Zr1454     Zr  0.42670646  0.27633246  0.99922162     2.11100
O1455       O  0.38722339  0.22497432  0.53335072    -2.48300
O1456       O  0.38747846  0.16136556  0.53328651    -0.80300
O1457       O  0.38268393  0.22384268  0.96942338    -0.72500
O1458       O  0.46805997  0.20297679  0.52973606    -2.33400
O1459       O  0.38284121  0.15888519  0.96920117    -2.29600
O1460       O  0.46751613  0.26531767  0.52996015    -0.74200
H1461       H  0.47769232  0.28364826  0.95114277     0.77800
H1462       H  0.48500775  0.19801742  0.54138471     0.78800
H1463       H  0.37316341  0.23189618  0.54682490     0.81100
H1464       H  0.36696629  0.13659324  0.95745588     0.78700
H1465       H  0.54787213  0.29355431  0.54603245     0.41700
H1466       H  0.49448608  0.26032851  0.59827486     0.40700
H1467       H  0.36608100  0.16395300  0.59833530     0.40400
H1468       H  0.30802315  0.17423141  0.55729503     0.38300
H1469       H  0.30440740  0.16847130  0.94982232     0.41400
H1470       H  0.36475026  0.16732831  0.89070720     0.36200
H1471       H  0.47880228  0.23648973  0.89322127     0.42300
H1472       H  0.54407435  0.28830491  0.94036789     0.38700
H1473       H  0.27677778  0.14437565  0.53599584     0.43700
H1474       H  0.35792546  0.20036424  0.89927280     0.42400
H1475       H  0.57482150  0.29596485  0.96485883     0.42500
H1476       H  0.46259155  0.23560735  0.62147210     0.42900
C1477       C  0.29946466  0.31861808  0.52577043    -0.14000
C1478       C  0.26659161  0.30589604  0.50846212     0.08100
C1479       C  0.25218955  0.27140434  0.49294640    -0.14000
C1480       C  0.27202691  0.25158296  0.49312736    -0.14000
C1481       C  0.30641054  0.26611670  0.50881436     0.08100
C1482       C  0.31899112  0.29911301  0.52594426    -0.14000
H1483       H  0.31098556  0.34469823  0.53841976     0.12100
H1484       H  0.22693814  0.26095289  0.47938165     0.12100
H1485       H  0.26169263  0.22624130  0.47968225     0.12100
H1486       H  0.34498975  0.31075713  0.53869966     0.12100
C1487       C  0.44642330  0.58901585  0.01179408    -0.14000
C1488       C  0.45191830  0.61700489  0.99067319     0.08100
C1489       C  0.42451588  0.60897893  0.96841703    -0.14000
C1490       C  0.39096442  0.57490910  0.96861117    -0.14000
C1491       C  0.38385888  0.54802956  0.99113217     0.08100
C1492       C  0.41235009  0.55453065  0.01206081    -0.14000
H1493       H  0.46708453  0.59487786  0.02938331     0.12100
H1494       H  0.42817842  0.63008067  0.95187793     0.12100
H1495       H  0.36943203  0.57045794  0.95222552     0.12100
H1496       H  0.40720463  0.53433557  0.02987578     0.12100
C1497       C  0.30328265  0.98029990  0.52563174    -0.14000
C1498       C  0.26887400  0.95979199  0.51031191     0.08100
C1499       C  0.25196592  0.97980350  0.99758281    -0.14000
C1500       C  0.27159695  0.01957496  0.99766644    -0.14000
C1501       C  0.30825200  0.03952668  0.51050883     0.08100
C1502       C  0.32256536  0.01938731  0.52575297    -0.14000
H1503       H  0.31608671  0.96601013  0.53676748     0.12100
H1504       H  0.22499515  0.96470501  0.98630042     0.12100
H1505       H  0.25936214  0.03430343  0.98641948     0.12100
H1506       H  0.34963458  0.03400030  0.53698442     0.12100
C1507       C  0.18692360  0.60934557  0.96536990    -0.14000
C1508       C  0.16721023  0.61684001  0.98768666     0.08100
C1509       C  0.14472610  0.58841602  0.00851400    -0.14000
C1510       C  0.14490733  0.55426698  0.00860276    -0.14000
C1511       C  0.16763031  0.54852164  0.98791421     0.08100
C1512       C  0.18719562  0.57566763  0.96551960    -0.14000
H1513       H  0.20419219  0.63068020  0.94891546     0.12100
H1514       H  0.12952664  0.59371100  0.02608338     0.12100
H1515       H  0.12978324  0.53376974  0.02621865     0.12100
H1516       H  0.20463342  0.57174981  0.94918093     0.12100
C1517       C  0.39037672  0.81326076  0.96431031    -0.14000
C1518       C  0.38353739  0.83448898  0.98562206     0.08100
C1519       C  0.41134360  0.85552226  0.50790736    -0.14000
C1520       C  0.44550585  0.85546248  0.50823000    -0.14000
C1521       C  0.45170776  0.83394857  0.98638831     0.08100
C1522       C  0.42394786  0.81290737  0.96474894    -0.14000
H1523       H  0.36861512  0.79484694  0.94855653     0.12100
H1524       H  0.40599771  0.87091611  0.52528154     0.12100
H1525       H  0.46597074  0.87084319  0.52582664     0.12100
H1526       H  0.42729316  0.79426626  0.94930459     0.12100
C1527       C  0.74896662  0.02056029  0.49557297    -0.14000
C1528       C  0.73344428  0.04066424  0.50931833     0.08100
C1529       C  0.69903130  0.02031928  0.52463873    -0.14000
C1530       C  0.67931041  0.98123883  0.52454023    -0.14000
C1531       C  0.69319740  0.96080754  0.50919680     0.08100
C1532       C  0.72893132  0.98079122  0.49552666    -0.14000
H1533       H  0.77543611  0.03543616  0.48357882     0.12100
H1534       H  0.68651870  0.03475210  0.53598574     0.12100
H1535       H  0.65230214  0.96687729  0.53583902     0.12100
H1536       H  0.74039878  0.96582003  0.48354195     0.12100
C1537       C  0.98105270  0.30322591  0.52306789    -0.14000
C1538       C  0.96070705  0.26832096  0.50842488     0.08100
C1539       C  0.98056600  0.25177597  0.49605008    -0.14000
C1540       C  0.02025647  0.27144662  0.49636208    -0.14000
C1541       C  0.04027670  0.30772965  0.50909745     0.08100
C1542       C  0.02002445  0.32253143  0.52339303    -0.14000
H1543       H  0.96674657  0.31641823  0.53353015     0.12100
H1544       H  0.96559184  0.22477192  0.48478699     0.12100
H1545       H  0.03514668  0.25926370  0.48530614     0.12100
H1546       H  0.03443302  0.34996940  0.53407143     0.12100
C1547       C  0.61029270  0.18566351  0.96417249    -0.14000
C1548       C  0.61761102  0.16607583  0.98675437     0.08100
C1549       C  0.58900740  0.14324673  0.50735270    -0.14000
C1550       C  0.55484398  0.14343279  0.50736587    -0.14000
C1551       C  0.54922824  0.16635163  0.98624638     0.08100
C1552       C  0.57657312  0.18585980  0.96395666    -0.14000
H1553       H  0.63175647  0.20287036  0.94779028     0.12100
H1554       H  0.59368564  0.12693369  0.52429964     0.12100
H1555       H  0.53374463  0.12720090  0.52428193     0.12100
H1556       H  0.57277172  0.20320743  0.94742885     0.12100
C1557       C  0.98103352  0.72848880  0.49379617    -0.14000
C1558       C  0.96102776  0.69336804  0.50844394     0.08100
C1559       C  0.98142477  0.67948407  0.52383637    -0.14000
C1560       C  0.02046358  0.69875630  0.52334714    -0.14000
C1561       C  0.04077714  0.73270607  0.50740053     0.08100
C1562       C  0.02076864  0.74810191  0.49328913    -0.14000
H1563       H  0.96605791  0.73973252  0.48150965     0.12100
H1564       H  0.96701364  0.65277823  0.53561303     0.12100
H1565       H  0.03488054  0.68633464  0.53486323     0.12100
H1566       H  0.03566028  0.77413866  0.48069276     0.12100
C1567       C  0.74924785  0.72900965  0.49579144    -0.14000
C1568       C  0.73327822  0.69331719  0.50956925     0.08100
C1569       C  0.69898116  0.67959301  0.52495589    -0.14000
C1570       C  0.67984218  0.69944710  0.52495278    -0.14000
C1571       C  0.69412236  0.73379378  0.50949018     0.08100
C1572       C  0.72973393  0.74917523  0.49573117    -0.14000
H1573       H  0.77564856  0.74029662  0.48374954     0.12100
H1574       H  0.68614798  0.65258835  0.53629779     0.12100
H1575       H  0.65287129  0.68708524  0.53629214     0.12100
H1576       H  0.74144362  0.77558566  0.48362025     0.12100
C1577       C  0.85833874  0.44688938  0.00795592    -0.14000
C1578       C  0.83439597  0.45215228  0.98826139     0.08100
C1579       C  0.81310934  0.42418811  0.96682454    -0.14000
C1580       C  0.81279071  0.39023706  0.96686541    -0.14000
C1581       C  0.83385319  0.38331046  0.98828916     0.08100
C1582       C  0.85810260  0.41250124  0.00793304    -0.14000
H1583       H  0.87487528  0.46801540  0.02480045     0.12100
H1584       H  0.79476728  0.42771604  0.95117062     0.12100
H1585       H  0.79421007  0.36838438  0.95124106     0.12100
H1586       H  0.87449806  0.40771092  0.02472771     0.12100
C1587       C  0.61120677  0.42518609  0.96714547    -0.14000
C1588       C  0.61826004  0.45231676  0.98944342     0.08100
C1589       C  0.58945392  0.44639392  0.00979266    -0.14000
C1590       C  0.55520142  0.41208185  0.00943621    -0.14000
C1591       C  0.54977113  0.38369344  0.98873919     0.08100
C1592       C  0.57740682  0.39133113  0.96678612    -0.14000
H1593       H  0.63289560  0.42926569  0.95108263     0.12100
H1594       H  0.59447593  0.46688990  0.02732890     0.12100
H1595       H  0.53434602  0.40665575  0.02671369     0.12100
H1596       H  0.57376199  0.37003183  0.95044087     0.12100
C1597       C  0.45124613  0.34631465  0.65281227    -0.14000
C1598       C  0.46428413  0.38414118  0.64579628     0.08100
C1599       C  0.46686685  0.39469467  0.61499409    -0.14000
C1600       C  0.45715174  0.36799387  0.59180748    -0.14000
C1601       C  0.44478010  0.33029904  0.59899629     0.08100
C1602       C  0.44161729  0.31980360  0.62977531    -0.14000
H1603       H  0.44857933  0.33704820  0.67619518     0.12100
H1604       H  0.47665466  0.42360957  0.60876175     0.12100
H1605       H  0.46015787  0.37700182  0.56832405     0.12100
H1606       H  0.43200191  0.29097537  0.63619425     0.12100
C1607       C  0.44105877  0.34250259  0.84606972    -0.14000
C1608       C  0.45590624  0.38054050  0.85357820     0.08100
C1609       C  0.45847743  0.39070623  0.88443112    -0.14000
C1610       C  0.44750614  0.36353812  0.90725144    -0.14000
C1611       C  0.43377807  0.32567151  0.89968699     0.08100
C1612       C  0.43013378  0.31543707  0.86881264    -0.14000
H1613       H  0.43836611  0.33357642  0.82257534     0.12100
H1614       H  0.46957556  0.41974604  0.89102126     0.12100
H1615       H  0.45098652  0.37240607  0.93080031     0.12100
H1616       H  0.41963631  0.28651905  0.86212844     0.12100
C1617       C  0.65548071  0.54835750  0.65367921    -0.14000
C1618       C  0.61820319  0.53791894  0.64686791     0.08100
C1619       C  0.60784918  0.53698580  0.61617248    -0.14000
C1620       C  0.63417298  0.54588520  0.59286022    -0.14000
C1621       C  0.67130919  0.55575328  0.59978588     0.08100
C1622       C  0.68161731  0.55709279  0.63049678    -0.14000
H1623       H  0.66453666  0.54949490  0.67698218     0.12100
H1624       H  0.57934819  0.52915909  0.61010405     0.12100
H1625       H  0.62527562  0.54432062  0.56945820     0.12100
H1626       H  0.70999578  0.56465270  0.63675784     0.12100
C1627       C  0.65821518  0.55989261  0.84707409    -0.14000
C1628       C  0.62036674  0.54621640  0.85446882     0.08100
C1629       C  0.61056244  0.54560540  0.88523351    -0.14000
C1630       C  0.63777811  0.55670038  0.90812342    -0.14000
C1631       C  0.67530053  0.56855392  0.90069575     0.08100
C1632       C  0.68528522  0.57093567  0.86984128    -0.14000
H1633       H  0.66695106  0.56129633  0.82365230     0.12100
H1634       H  0.58174491  0.53583987  0.89170832     0.12100
H1635       H  0.62914322  0.55458985  0.93164233     0.12100
H1636       H  0.71395448  0.58023202  0.86319106     0.12100
C1637       C  0.54911124  0.65544721  0.65362810    -0.14000
C1638       C  0.53816352  0.61802047  0.64700482     0.08100
C1639       C  0.53771773  0.60742007  0.61644012    -0.14000
C1640       C  0.54717991  0.63361043  0.59298092    -0.14000
C1641       C  0.55717529  0.67081700  0.59968608     0.08100
C1642       C  0.55847324  0.68146566  0.63030777    -0.14000
H1643       H  0.55012344  0.66469178  0.67685504     0.12100
H1644       H  0.52976436  0.57881187  0.61057562     0.12100
H1645       H  0.54582988  0.62454319  0.56965562     0.12100
H1646       H  0.56630758  0.70998483  0.63639153     0.12100
C1647       C  0.54553507  0.60976825  0.88567720    -0.14000
C1648       C  0.54564390  0.61966991  0.85498991     0.08100
C1649       C  0.55811508  0.65735060  0.84781819    -0.14000
C1650       C  0.56893042  0.68423069  0.87068683    -0.14000
C1651       C  0.56751627  0.67426518  0.90145865     0.08100
C1652       C  0.55636043  0.63681837  0.90870514    -0.14000
H1653       H  0.53650380  0.58102744  0.89197199     0.12100
H1654       H  0.55889351  0.66612441  0.82448201     0.12100
H1655       H  0.57747059  0.71278576  0.86416213     0.12100
H1656       H  0.55481087  0.62815136  0.93216676     0.12100
C1657       C  0.34483302  0.44995846  0.65400520    -0.14000
C1658       C  0.38258626  0.46256993  0.64712574     0.08100
C1659       C  0.39306718  0.46394832  0.61643138    -0.14000
C1660       C  0.36649649  0.45385158  0.59314551    -0.14000
C1661       C  0.32898603  0.44229236  0.60011966     0.08100
C1662       C  0.31841834  0.43993606  0.63084254    -0.14000
H1663       H  0.33560930  0.44810265  0.67732818     0.12100
H1664       H  0.42188895  0.47320825  0.61033151     0.12100
H1665       H  0.37551962  0.45610272  0.56972558     0.12100
H1666       H  0.28966666  0.43084077  0.63709746     0.12100
C1667       C  0.31685089  0.43361816  0.86994301    -0.14000
C1668       C  0.32657788  0.43347278  0.90062492     0.08100
C1669       C  0.36364756  0.44313229  0.90769017    -0.14000
C1670       C  0.39061061  0.45399221  0.88465734    -0.14000
C1671       C  0.38103631  0.45545827  0.85413122     0.08100
C1672       C  0.34366808  0.44444721  0.84704955    -0.14000
H1673       H  0.28858817  0.42630420  0.86352961     0.12100
H1674       H  0.37211739  0.44341304  0.93105483     0.12100
H1675       H  0.41907290  0.46179595  0.89084343     0.12100
H1676       H  0.33515627  0.44491275  0.82381507     0.12100
C1677       C  0.88711957  0.56962396  0.62877967    -0.14000
C1678       C  0.89005506  0.56083383  0.59834665     0.08100
C1679       C  0.91077012  0.54310275  0.59172582    -0.14000
C1680       C  0.92711904  0.53322581  0.61522310    -0.14000
C1681       C  0.92310782  0.54095244  0.64577991     0.08100
C1682       C  0.90340703  0.55980158  0.65219018    -0.14000
H1683       H  0.87152268  0.58351337  0.63461777     0.12100
H1684       H  0.91315600  0.53561305  0.56854979     0.12100
H1685       H  0.94224174  0.51883637  0.60947064     0.12100
H1686       H  0.90023530  0.56671668  0.67536000     0.12100
C1687       C  0.93304111  0.54206215  0.88468013    -0.14000
C1688       C  0.92359670  0.54237201  0.85392667     0.08100
C1689       C  0.89828505  0.55462379  0.84659038    -0.14000
C1690       C  0.88193611  0.56519829  0.86937618    -0.14000
C1691       C  0.89035138  0.56376070  0.90018706     0.08100
C1692       C  0.91661532  0.55270791  0.90758207    -0.14000
H1693       H  0.95279675  0.53319668  0.89112148     0.12100
H1694       H  0.89059447  0.55559268  0.82318794     0.12100
H1695       H  0.86202722  0.57380640  0.86277658     0.12100
H1696       H  0.92365475  0.55121672  0.93108150     0.12100
C1697       C  0.89874554  0.34477559  0.65214166    -0.14000
C1698       C  0.92156270  0.38309651  0.64556135    -0.00900
C1699       C  0.92893428  0.39445343  0.61487989    -0.14000
C1700       C  0.91259747  0.36818316  0.59136671    -0.14000
C1701       C  0.88855273  0.33010639  0.59811209     0.08100
C1702       C  0.88252852  0.31864000  0.62874455    -0.14000
H1703       H  0.89300888  0.33489657  0.67542029     0.12100
H1704       H  0.94680508  0.42374503  0.60897949     0.12100
H1705       H  0.91776449  0.37784507  0.56801442     0.12100
H1706       H  0.86454573  0.28939095  0.63476511     0.12100
C1707       C  0.90093172  0.34299088  0.84636443    -0.14000
C1708       C  0.92583180  0.38077982  0.85359578     0.08100
C1709       C  0.93521739  0.39075749  0.88434952    -0.14000
C1710       C  0.91890198  0.36372579  0.90734890    -0.14000
C1711       C  0.89280530  0.32619341  0.90005182     0.08100
C1712       C  0.88471700  0.31610038  0.86924163    -0.14000
H1713       H  0.89325507  0.33416902  0.82298422     0.12100
H1714       H  0.95465132  0.41957438  0.89073139     0.12100
H1715       H  0.92571459  0.37249995  0.93083408     0.12100
H1716       H  0.86491073  0.28744885  0.86270752     0.12100
C1717       C  0.11840338  0.43552937  0.63046804    -0.14000
C1718       C  0.11249283  0.44044148  0.59969814     0.08100
C1719       C  0.08858560  0.45446923  0.59250041    -0.14000
C1720       C  0.07202796  0.46458221  0.61566291    -0.14000
C1721       C  0.07907243  0.46085015  0.64646612     0.08100
C1722       C  0.10196448  0.44562351  0.65351630    -0.14000
H1723       H  0.13639389  0.42447181  0.63686487     0.12100
H1724       H  0.08358637  0.45871380  0.56903675     0.12100
H1725       H  0.05418844  0.47585827  0.60940253     0.12100
H1726       H  0.10755352  0.44177396  0.67691515     0.12100
C1727       C  0.11498594  0.43083281  0.87018172    -0.14000
C1728       C  0.11135518  0.43778927  0.90092827     0.08100
C1729       C  0.08958742  0.45421595  0.90840286    -0.14000
C1730       C  0.07288434  0.46459305  0.88548026    -0.14000
C1731       C  0.07752725  0.45863768  0.85461059     0.08100
C1732       C  0.09828027  0.44105648  0.84736532    -0.14000
H1733       H  0.13132774  0.41797190  0.86364241     0.12100
H1734       H  0.08649787  0.46019552  0.93187743     0.12100
H1735       H  0.05688887  0.47784565  0.89194228     0.12100
H1736       H  0.10207113  0.43552046  0.82394313     0.12100
C1737       C  0.07640826  0.60542394  0.61532238    -0.14000
C1738       C  0.08218975  0.61711133  0.64597467     0.08100
C1739       C  0.10407987  0.65557379  0.65249486    -0.14000
C1740       C  0.12043961  0.68162763  0.62906846    -0.14000
C1741       C  0.11534501  0.66993925  0.59848397     0.08100
C1742       C  0.09280072  0.63161129  0.59179645    -0.14000
H1743       H  0.05954230  0.57597491  0.60946981     0.12100
H1744       H  0.10870835  0.66565063  0.67574005     0.12100
H1745       H  0.13749559  0.71104862  0.63499718     0.12100
H1746       H  0.08870856  0.62177816  0.56849059     0.12100
C1747       C  0.06767100  0.60907929  0.88481642    -0.14000
C1748       C  0.07414601  0.61975091  0.85399314     0.08100
C1749       C  0.09571854  0.65807490  0.84679765    -0.14000
C1750       C  0.11165648  0.68495606  0.86974580    -0.14000
C1751       C  0.10653222  0.67425426  0.90051697     0.08100
C1752       C  0.08365515  0.63607458  0.90784954    -0.14000
H1753       H  0.05095112  0.57979751  0.89119659     0.12100
H1754       H  0.10096052  0.66738461  0.82336218     0.12100
H1755       H  0.12897107  0.71413963  0.86328270     0.12100
H1756       H  0.07936021  0.62686220  0.93132126     0.12100
C1757       C  0.39350662  0.93117832  0.61536568    -0.14000
C1758       C  0.38383374  0.92026741  0.64591286     0.08100
C1759       C  0.34687169  0.89257296  0.65277626    -0.14000
C1760       C  0.32035857  0.87579241  0.62974244    -0.14000
C1761       C  0.33000762  0.88614108  0.59911500     0.08100
C1762       C  0.36682546  0.91429136  0.59218360    -0.14000
H1763       H  0.42172610  0.95266794  0.60931659     0.12100
H1764       H  0.33834068  0.88355060  0.67599575     0.12100
H1765       H  0.29228292  0.85420459  0.63605330     0.12100
H1766       H  0.37521609  0.92275512  0.56885512     0.12100
C1767       C  0.39133277  0.93399078  0.88436385    -0.14000
C1768       C  0.38159061  0.92413050  0.85365378     0.08100
C1769       C  0.34413343  0.89803287  0.84641435    -0.14000
C1770       C  0.31732985  0.88132520  0.86924991    -0.14000
C1771       C  0.32717559  0.89017149  0.90001947     0.08100
C1772       C  0.36437443  0.91719338  0.90732929    -0.14000
H1773       H  0.41987647  0.95433839  0.89071947     0.12100
H1774       H  0.33549365  0.88993547  0.82305571     0.12100
H1775       H  0.28892094  0.86079591  0.86270611     0.12100
H1776       H  0.37291035  0.92460621  0.93079683     0.12100
C1777       C  0.53842084  0.93055823  0.61576423    -0.14000
C1778       C  0.53852540  0.92067699  0.64643180     0.08100
C1779       C  0.54973353  0.89452103  0.65350697    -0.14000
C1780       C  0.56001030  0.87817742  0.63056056    -0.14000
C1781       C  0.55913646  0.88731469  0.59982984     0.08100
C1782       C  0.54868552  0.91405887  0.59267558    -0.14000
H1783       H  0.53017167  0.95085239  0.60953873     0.12100
H1784       H  0.55038315  0.88638860  0.67682618     0.12100
H1785       H  0.56801377  0.85775787  0.63700551     0.12100
H1786       H  0.54754036  0.92154935  0.56924970     0.12100
C1787       C  0.55021277  0.89493838  0.84670520    -0.14000
C1788       C  0.54228345  0.92347580  0.85392789     0.08100
C1789       C  0.54531796  0.93509991  0.88443681    -0.14000
C1790       C  0.55513675  0.91780743  0.90725282    -0.14000
C1791       C  0.56199775  0.88848879  0.90001498     0.08100
C1792       C  0.55991411  0.87771199  0.86938319    -0.14000
H1793       H  0.54830539  0.88532159  0.82349126     0.12100
H1794       H  0.53980792  0.95732412  0.89073842     0.12100
H1795       H  0.55653899  0.92684310  0.93059134     0.12100
H1796       H  0.56513216  0.85536910  0.86283669     0.12100
C1797       C  0.65692356  0.10586882  0.65354482    -0.14000
C1798       C  0.61928735  0.08024656  0.64651140     0.08100
C1799       C  0.60898274  0.07089114  0.61581907    -0.14000
C1800       C  0.63559716  0.08765119  0.59265649    -0.14000
C1801       C  0.67300973  0.11407327  0.59974564     0.08100
C1802       C  0.68341218  0.12252013  0.63049486    -0.14000
H1803       H  0.66598218  0.11345053  0.67689694     0.12100
H1804       H  0.58025945  0.05093529  0.60961930     0.12100
H1805       H  0.62666565  0.08064090  0.56922420     0.12100
H1806       H  0.71204032  0.14259825  0.63686468     0.12100
C1807       C  0.60921976  0.06940392  0.88451559    -0.14000
C1808       C  0.62014302  0.07638835  0.85377449     0.08100
C1809       C  0.65843790  0.09863012  0.84678870    -0.14000
C1810       C  0.68500216  0.11466834  0.86991590    -0.14000
C1811       C  0.67398863  0.10896073  0.90063731     0.08100
C1812       C  0.63590068  0.08551453  0.90773051    -0.14000
H1813       H  0.57995850  0.05209351  0.89069675     0.12100
H1814       H  0.66795969  0.10421056  0.82341194     0.12100
H1815       H  0.71418942  0.13237344  0.86364182     0.12100
H1816       H  0.62652775  0.08076801  0.93115579     0.12100
C1817       C  0.45205401  0.10615478  0.65241150    -0.14000
C1818       C  0.46377925  0.08034996  0.64562918     0.08100
C1819       C  0.46455830  0.07061016  0.61500168    -0.14000
C1820       C  0.45447547  0.08699284  0.59167190    -0.14000
C1821       C  0.44342380  0.11335675  0.59859686     0.08100
C1822       C  0.44195912  0.12234909  0.62925792    -0.14000
H1823       H  0.45087965  0.11416158  0.67567441     0.12100
H1824       H  0.47321376  0.05055496  0.60900817     0.12100
H1825       H  0.45613888  0.07966780  0.56828892     0.12100
H1826       H  0.43351241  0.14248769  0.63551668     0.12100
C1827       C  0.44441126  0.10177713  0.84618384    -0.14000
C1828       C  0.45884611  0.07818509  0.85324573     0.08100
C1829       C  0.46167321  0.07037479  0.88401154    -0.14000
C1830       C  0.45135520  0.08673657  0.90716416    -0.14000
C1831       C  0.43793086  0.11116389  0.89999049     0.08100
C1832       C  0.43410406  0.11803451  0.86923880    -0.14000
H1833       H  0.44145881  0.10814169  0.82279634     0.12100
H1834       H  0.47240403  0.05206747  0.89026733     0.12100
H1835       H  0.45488758  0.08108360  0.93062440     0.12100
H1836       H  0.42369169  0.13658199  0.86287821     0.12100
loop_ 
_geom_bond_atom_site_label_1 
_geom_bond_atom_site_label_2 
_geom_bond_distance 
_geom_bond_site_symmetry_2 
_ccdc_geom_bond_type 
O1          Zr13   2.438       .  S
O1            C3   1.288       .  A
O2          Zr39   2.416       .  S
O2            C3   1.285       .  A
C3          C910   1.481       .  S
O4          Zr16   2.448       .  S
O4            C6   1.289       .  A
O5          Zr40   2.407   1_565  S
O5            C6   1.283       .  A
C6          C840   1.481       .  S
O7          Zr16   2.442       .  S
O7            C9   1.289       .  A
O8          Zr39   2.412   1_565  S
O8            C9   1.285       .  A
C9          C850   1.481       .  S
O10         Zr13   2.452       .  S
O10          C12   1.291       .  A
O11         Zr40   2.405       .  S
O11          C12   1.282       .  A
C12         C900   1.482       .  S
Zr13         O14   2.434       .  S
Zr13         O15   2.434       .  S
Zr13         O19   2.371       .  S
Zr13         O20   2.368       .  S
Zr13         O43   2.372       .  S
Zr13         O45   2.378       .  S
O14          H57   0.990       .  S
O15          H56   0.990       .  S
O15          H60   0.990       .  S
Zr16         O17   2.437       .  S
Zr16         O18   2.434       .  S
Zr16         O20   2.369   1_565  S
Zr16         O19   2.369   1_565  S
Zr16         O44   2.372       .  S
Zr16         O46   2.371       .  S
O17          H58   0.990       .  S
O17          H61   0.990       .  S
O18          H51   0.990       .  S
O19         Zr39   2.377       .  S
O20         Zr40   2.381       .  S
O20          H47   0.965       .  S
O21         Zr33   2.447       .  S
O21          C23   1.289       .  A
O22         Zr40   2.412       .  S
O22          C23   1.284       .  A
C23         C880   1.481       .  S
O24         Zr36   2.448       .  S
O24          C26   1.290       .  A
O25         Zr39   2.419   1_565  S
O25          C26   1.286       .  A
C26         C870   1.486       .  S
O27         Zr36   2.451       .  S
O27          C29   1.291       .  A
O28         Zr40   2.403   1_565  S
O28          C29   1.282       .  A
C29         C860   1.480       .  S
O30         Zr33   2.441       .  S
O30          C32   1.289       .  A
O31         Zr39   2.413       .  S
O31          C32   1.284       .  A
C32         C890   1.480       .  S
Zr33         O34   2.437       .  S
Zr33         O35   2.434       .  S
Zr33         O41   2.366   1_545  S
Zr33         O42   2.369   1_545  S
Zr33         O45   2.376       .  S
Zr33         O43   2.375       .  S
O34          H54   0.990       .  S
O34          H59   0.990       .  S
O35          H55   0.990       .  S
Zr36         O37   2.434       .  S
Zr36         O38   2.434       .  S
Zr36         O42   2.370       .  S
Zr36         O41   2.370       .  S
Zr36         O46   2.371       .  S
Zr36         O44   2.371       .  S
O37          H53   0.990       .  S
O38          H52   0.990       .  S
O38          H62   0.990       .  S
Zr39         O42   2.374   1_545  S
Zr39         O44   2.385   1_545  S
Zr39         O45   2.386       .  S
Zr40         O41   2.379   1_545  S
Zr40         O43   2.379       .  S
Zr40         O46   2.381   1_545  S
O41          H49   0.965       .  S
O44          H48   0.965       .  S
O45          H50   0.966       .  S
O63         Zr75   2.437       .  S
O63          C65   1.288       .  A
O64        Zr101   2.413       .  S
O64          C65   1.285       .  A
C65         C830   1.480       .  S
O66         Zr78   2.450       .  S
O66          C68   1.290       .  A
O67        Zr102   2.415   1_655  S
O67          C68   1.285       .  A
C68         C763   1.482       .  S
O69         Zr78   2.442       .  S
O69          C71   1.289       .  A
O70        Zr101   2.422   1_655  S
O70          C71   1.286       .  A
C71         C770   1.484       .  S
O72         Zr75   2.448       .  S
O72          C74   1.290       .  A
O73        Zr102   2.405       .  S
O73          C74   1.283       .  A
C74         C820   1.480       .  S
Zr75         O76   2.435       .  S
Zr75         O77   2.434       .  S
Zr75         O81   2.369       .  S
Zr75         O82   2.367       .  S
Zr75        O105   2.373       .  S
Zr75        O107   2.374       .  S
O76         H119   0.990       .  S
O77         H118   0.990       .  S
O77         H122   0.990       .  S
Zr78         O79   2.436       .  S
Zr78         O80   2.435       .  S
Zr78         O82   2.370   1_655  S
Zr78         O81   2.371   1_655  S
Zr78        O106   2.375       .  S
Zr78        O108   2.373       .  S
O79         H120   0.990       .  S
O79         H123   0.990       .  S
O80         H113   0.990       .  S
O81        Zr101   2.375       .  S
O82        Zr102   2.380       .  S
O82         H109   0.966       .  S
O83         Zr95   2.448       .  S
O83          C85   1.290       .  A
O84        Zr102   2.414       .  S
O84          C85   1.284       .  A
C85         C803   1.483       .  S
O86         Zr98   2.442       .  S
O86          C88   1.289       .  A
O87        Zr101   2.411   1_655  S
O87          C88   1.285       .  A
C88         C790   1.482       .  S
O89         Zr98   2.450       .  S
O89          C91   1.290       .  A
O90        Zr102   2.402   1_655  S
O90          C91   1.282       .  A
C91         C780   1.478       .  S
O92         Zr95   2.445       .  S
O92          C94   1.290       .  A
O93        Zr101   2.423       .  S
O93          C94   1.286       .  A
C94         C813   1.486       .  S
Zr95         O96   2.438       .  S
Zr95         O97   2.435       .  S
Zr95        O103   2.369       .  S
Zr95        O104   2.368   1_455  S
Zr95        O107   2.376       .  S
Zr95        O105   2.375       .  S
O96         H116   0.990       .  S
O96         H121   0.990       .  S
O97         H117   0.990       .  S
Zr98         O99   2.432       .  S
Zr98        O100   2.435       .  S
Zr98        O104   2.372       .  S
Zr98        O103   2.369   1_655  S
Zr98        O108   2.370       .  S
Zr98        O106   2.371       .  S
O99         H115   0.990       .  S
O100        H114   0.990       .  S
O100        H124   0.990       .  S
Zr101       O104   2.375   1_455  S
Zr101       O106   2.389   1_455  S
Zr101       O107   2.385       .  S
Zr102       O103   2.380       .  S
Zr102       O105   2.380       .  S
Zr102       O108   2.383   1_455  S
O103        H111   0.966   1_455  S
O106        H110   0.967       .  S
O107        H112   0.968       .  S
O125       Zr137   2.447       .  S
O125        C127   1.290       .  A
O126       Zr163   2.417       .  S
O126        C127   1.285       .  A
C127        C753   1.486       .  S
O128       Zr140   2.458       .  S
O128        C130   1.292       .  A
O129       Zr164   2.403       .  S
O129        C130   1.282       .  A
C130        C680   1.482       .  S
O131       Zr140   2.445       .  S
O131        C133   1.289       .  A
O132       Zr163   2.412       .  S
O132        C133   1.285       .  A
C133        C690   1.483       .  S
O134       Zr137   2.444       .  S
O134        C136   1.289       .  A
O135       Zr164   2.407       .  S
O135        C136   1.283       .  A
C136        C740   1.479       .  S
Zr137       O138   2.435       .  S
Zr137       O139   2.433       .  S
Zr137       O143   2.368       .  S
Zr137       O144   2.371       .  S
Zr137       O167   2.374       .  S
Zr137       O169   2.373       .  S
O138        H181   0.990       .  S
O139        H180   0.990       .  S
O139        H184   0.990       .  S
Zr140       O141   2.437       .  S
Zr140       O142   2.436       .  S
Zr140       O144   2.368       .  S
Zr140       O143   2.370       .  S
Zr140       O168   2.377       .  S
Zr140       O170   2.375       .  S
O141        H182   0.990       .  S
O141        H185   0.990       .  S
O142        H175   0.990       .  S
O143       Zr163   2.378       .  S
O144       Zr164   2.382       .  S
O144        H171   0.966       .  S
O145       Zr157   2.449       .  S
O145        C147   1.290       .  A
O146       Zr164   2.406       .  S
O146        C147   1.283       .  A
C147        C720   1.480       .  S
O148       Zr160   2.444       .  S
O148        C150   1.290       .  A
O149       Zr163   2.417       .  S
O149        C150   1.285       .  A
C150        C710   1.484       .  S
O151       Zr160   2.446       .  S
O151        C153   1.290       .  A
O152       Zr164   2.416       .  S
O152        C153   1.285       .  A
C153        C700   1.483       .  S
O154       Zr157   2.440       .  S
O154        C156   1.288       .  A
O155       Zr163   2.420       .  S
O155        C156   1.286       .  A
C156        C730   1.485       .  S
Zr157       O158   2.436       .  S
Zr157       O159   2.435       .  S
Zr157       O165   2.368       .  S
Zr157       O166   2.367       .  S
Zr157       O169   2.375       .  S
Zr157       O167   2.373       .  S
O158        H178   0.990       .  S
O158        H183   0.990       .  S
O159        H179   0.990       .  S
Zr160       O161   2.434       .  S
Zr160       O162   2.434       .  S
Zr160       O166   2.367       .  S
Zr160       O165   2.367       .  S
Zr160       O170   2.374       .  S
Zr160       O168   2.374       .  S
O161        H177   0.990       .  S
O162        H176   0.990       .  S
O162        H186   0.990       .  S
Zr163       O166   2.373       .  S
Zr163       O168   2.387       .  S
Zr163       O169   2.385       .  S
Zr164       O165   2.378       .  S
Zr164       O167   2.381       .  S
Zr164       O170   2.382       .  S
O165        H173   0.966       .  S
O168        H172   0.968       .  S
O169        H174   0.968       .  S
O187       Zr199   2.426       .  S
O187       C1107   1.286       .  A
O188      Zr1143   2.446       .  S
O188       C1107   1.289       .  A
C189       O1105   1.287       .  A
C189       O1106   1.288       .  A
C189        C660   1.479       .  S
O190       Zr202   2.427       .  S
O190        C192   1.285       .  A
O191       Zr226   2.438       .  S
O191        C192   1.289       .  A
C192        C713   1.484       .  S
O193       Zr202   2.422       .  S
O193        C195   1.285       .  A
O194       Zr225   2.433       .  S
O194        C195   1.288       .  A
C195        C773   1.482       .  S
O196      Zr1117   2.431       .  S
O196        C198   1.287       .  A
O197       Zr226   2.443       .  S
O197        C198   1.288       .  A
C198        C670   1.477       .  S
Zr199      O1114   2.427       .  S
Zr199       O201   2.434   1_556  S
Zr199      O1118   2.432       .  S
Zr199       O229   2.360   1_556  S
Zr199       O231   2.356   1_556  S
Zr199      O1123   2.365       .  S
Zr199      O1124   2.364       .  S
O200      Zr1117   2.435       .  S
O200        H243   0.990       .  S
O201        H242   0.990       .  S
O201        H246   0.990       .  S
Zr202       O203   2.437       .  S
Zr202       O204   2.434       .  S
Zr202       O206   2.368       .  S
Zr202       O205   2.369       .  S
Zr202       O230   2.367       .  S
Zr202       O232   2.368       .  S
O203        H244   0.990       .  S
O203        H247   0.990       .  S
O204        H237   0.990       .  S
O205       Zr225   2.376       .  S
O205      Zr1117   2.362       .  S
O206       Zr226   2.382       .  S
O206      Zr1117   2.363       .  S
O206        H233   0.966       .  S
O207       Zr219   2.417       .  S
O207        C209   1.284       .  A
O208      Zr1144   2.439       .  S
O208        C209   1.289       .  A
C209        C703   1.483       .  S
O210       Zr222   2.490       .  S
O210       C1130   1.297       .  A
O211       Zr225   2.410       .  S
O211       C1130   1.286       .  A
C212       O1128   1.297       .  A
C212       O1129   1.286       .  A
C212        C640   1.491       .  S
O213       Zr222   2.492       .  S
O213       C1133   1.297       .  A
O214       Zr226   2.408       .  S
O214       C1133   1.286       .  A
C215       O1131   1.298       .  A
C215       O1132   1.286       .  A
C215        C650   1.492       .  S
O216       Zr219   2.425       .  S
O216        C218   1.286       .  A
O217      Zr1143   2.433   1_554  S
O217        C218   1.288       .  A
C218        C760   1.479       .  S
Zr219       O220   2.432       .  S
Zr219       O221   2.435       .  S
Zr219       O227   2.362       .  S
Zr219       O228   2.362       .  S
Zr219       O231   2.369       .  S
Zr219       O229   2.371       .  S
O220        H240   0.990       .  S
O220        H245   0.990       .  S
O221        H241   0.990       .  S
Zr222       O224   2.435       .  S
Zr222      O1141   2.435       .  S
Zr222       O232   2.383       .  S
Zr222       O230   2.384       .  S
Zr222      O1146   2.389       .  S
Zr222      O1145   2.388       .  S
O223      Zr1140   2.434       .  S
O223        H239   0.990       .  S
O224        H238   0.990       .  S
O224        H248   0.990       .  S
Zr225      O1106   2.442       .  S
Zr225      O1135   2.440       .  S
Zr225       O230   2.397       .  S
Zr225      O1146   2.390       .  S
Zr225      O1149   2.380       .  S
Zr226      O1126   2.439       .  S
Zr226       O232   2.394       .  S
Zr226      O1145   2.396       .  S
Zr226      O1147   2.378       .  S
O227      Zr1140   2.387       .  S
O227      Zr1144   2.394       .  S
O227        H235   0.966       .  S
O228      Zr1140   2.386       .  S
O228      Zr1143   2.388   1_554  S
O229      Zr1144   2.375       .  S
O230        H234   0.966       .  S
O231      Zr1143   2.377   1_554  S
O231        H236   0.966       .  S
O249       Zr261   2.427       .  S
O249       C1169   1.285       .  A
O250      Zr1205   2.446   1_556  S
O250       C1169   1.289       .  A
C251       O1167   1.286       .  A
C251       O1168   1.289       .  A
C251        C630   1.481       .  S
O252       Zr264   2.434       .  S
O252        C254   1.287       .  A
O253       Zr288   2.429       .  S
O253        C254   1.288       .  A
C254        C793   1.481       .  S
O255       Zr264   2.424       .  S
O255        C257   1.286       .  A
O256       Zr287   2.423       .  S
O256        C257   1.287       .  A
C257        C893   1.476       .  S
O258      Zr1179   2.426       .  S
O258        C260   1.286       .  A
O259       Zr288   2.449       .  S
O259        C260   1.289       .  A
C260        C663   1.478       .  S
Zr261      O1176   2.427       .  S
Zr261       O263   2.433   1_556  S
Zr261      O1180   2.434       .  S
Zr261       O291   2.369   1_556  S
Zr261       O293   2.363   1_556  S
Zr261      O1185   2.361       .  S
Zr261      O1186   2.360       .  S
O262      Zr1179   2.435       .  S
O262        H305   0.990       .  S
O263        H304   0.990       .  S
O263        H308   0.990       .  S
Zr264       O265   2.438       .  S
Zr264       O266   2.433       .  S
Zr264       O268   2.364       .  S
Zr264       O267   2.369       .  S
Zr264       O292   2.370       .  S
Zr264       O294   2.369       .  S
O265        H306   0.990       .  S
O265        H309   0.990       .  S
O266        H299   0.990       .  S
O267       Zr287   2.378       .  S
O267      Zr1179   2.361       .  S
O268       Zr288   2.381       .  S
O268      Zr1179   2.360       .  S
O268        H295   0.966       .  S
O269       Zr281   2.416       .  S
O269        C271   1.284       .  A
O270      Zr1206   2.427   1_554  S
O270        C271   1.287       .  A
C271        C783   1.475       .  S
O272       Zr284   2.489       .  S
O272       C1192   1.297       .  A
O273       Zr287   2.410       .  S
O273       C1192   1.287       .  A
C274       O1190   1.297       .  A
C274       O1191   1.286       .  A
C274        C610   1.489       .  S
O275       Zr284   2.485       .  S
O275       C1195   1.296       .  A
O276       Zr288   2.409       .  S
O276       C1195   1.287       .  A
C277       O1193   1.296       .  A
C277       O1194   1.287       .  A
C277        C620   1.491       .  S
O278       Zr281   2.415       .  S
O278        C280   1.283       .  A
O279      Zr1205   2.439       .  S
O279        C280   1.289       .  A
C280        C883   1.481       .  S
Zr281       O282   2.436       .  S
Zr281       O283   2.434       .  S
Zr281       O289   2.359       .  S
Zr281       O290   2.364       .  S
Zr281       O293   2.373       .  S
Zr281       O291   2.372       .  S
O282        H302   0.990       .  S
O282        H307   0.990       .  S
O283        H303   0.990       .  S
Zr284       O286   2.435       .  S
Zr284      O1203   2.435       .  S
Zr284       O294   2.386       .  S
Zr284       O292   2.383       .  S
Zr284      O1208   2.387       .  S
Zr284      O1207   2.386       .  S
O285      Zr1202   2.434       .  S
O285        H301   0.990       .  S
O286        H300   0.990       .  S
O286        H310   0.990       .  S
Zr287      O1168   2.449       .  S
Zr287      O1197   2.438       .  S
Zr287       O292   2.401       .  S
Zr287      O1208   2.388       .  S
Zr287      O1211   2.375       .  S
Zr288      O1188   2.436       .  S
Zr288       O294   2.397       .  S
Zr288      O1207   2.393       .  S
Zr288      O1209   2.374       .  S
O289      Zr1202   2.387       .  S
O289      Zr1206   2.395   1_554  S
O289        H297   0.966       .  S
O290      Zr1202   2.386       .  S
O290      Zr1205   2.390       .  S
O291      Zr1206   2.380   1_554  S
O292        H296   0.966       .  S
O293      Zr1205   2.379       .  S
O293        H298   0.967       .  S
O311       Zr323   2.428       .  S
O311       C1231   1.286       .  A
O312      Zr1267   2.440       .  S
O312       C1231   1.287       .  A
C313       O1229   1.285       .  A
C313       O1230   1.289       .  A
C313        C600   1.476       .  S
O314       Zr326   2.431       .  S
O314        C316   1.286       .  A
O315       Zr350   2.426       .  S
O315        C316   1.287       .  A
C316        C833   1.478       .  S
O317       Zr326   2.420       .  S
O317        C319   1.285       .  A
O318       Zr349   2.425       .  S
O318        C319   1.287       .  A
C319        C853   1.478       .  S
O320      Zr1241   2.426       .  S
O320        C322   1.286       .  A
O321       Zr350   2.449       .  S
O321        C322   1.289       .  A
C322        C590   1.477       .  S
Zr323      O1238   2.426       .  S
Zr323       O325   2.436   1_556  S
Zr323      O1242   2.436       .  S
Zr323       O353   2.366   1_556  S
Zr323       O355   2.361   1_556  S
Zr323      O1247   2.361       .  S
Zr323      O1248   2.363       .  S
O324      Zr1241   2.434       .  S
O324        H367   0.990       .  S
O325        H366   0.990       .  S
O325        H370   0.990       .  S
Zr326       O327   2.437       .  S
Zr326       O328   2.436       .  S
Zr326       O330   2.370       .  S
Zr326       O329   2.369       .  S
Zr326       O354   2.367       .  S
Zr326       O356   2.365       .  S
O327        H368   0.990       .  S
O327        H371   0.990       .  S
O328        H361   0.990       .  S
O329       Zr349   2.376       .  S
O329      Zr1241   2.360       .  S
O330       Zr350   2.382       .  S
O330      Zr1241   2.358       .  S
O330        H357   0.965       .  S
O331       Zr343   2.408       .  S
O331        C333   1.282       .  A
O332      Zr1268   2.438   1_554  S
O332        C333   1.289       .  A
C333        C823   1.478       .  S
O334       Zr346   2.486       .  S
O334       C1254   1.296       .  A
O335       Zr349   2.410       .  S
O335       C1254   1.287       .  A
C336       O1252   1.296       .  A
C336       O1253   1.287       .  A
C336        C580   1.492       .  S
O337       Zr346   2.487       .  S
O337       C1257   1.297       .  A
O338       Zr350   2.412       .  S
O338       C1257   1.287       .  A
C339       O1255   1.297       .  A
C339       O1256   1.288       .  A
C339        C643   1.491       .  S
O340       Zr343   2.415       .  S
O340        C342   1.283       .  A
O341      Zr1267   2.440   1_554  S
O341        C342   1.289       .  A
C342        C843   1.480       .  S
Zr343       O344   2.435       .  S
Zr343       O345   2.432       .  S
Zr343       O351   2.359       .  S
Zr343       O352   2.361       .  S
Zr343       O355   2.369       .  S
Zr343       O353   2.372       .  S
O344        H364   0.990       .  S
O344        H369   0.990       .  S
O345        H365   0.990       .  S
Zr346       O348   2.437       .  S
Zr346      O1265   2.433       .  S
Zr346       O356   2.383       .  S
Zr346       O354   2.382       .  S
Zr346      O1270   2.388       .  S
Zr346      O1269   2.386       .  S
O347      Zr1264   2.434       .  S
O347        H363   0.990       .  S
O348        H362   0.990       .  S
O348        H372   0.990       .  S
Zr349      O1230   2.444       .  S
Zr349      O1259   2.440       .  S
Zr349       O354   2.401       .  S
Zr349      O1270   2.388       .  S
Zr349      O1273   2.376       .  S
Zr350      O1250   2.439       .  S
Zr350       O356   2.397       .  S
Zr350      O1269   2.393       .  S
Zr350      O1271   2.375       .  S
O351      Zr1264   2.386       .  S
O351      Zr1268   2.392   1_554  S
O351        H359   0.965       .  S
O352      Zr1264   2.386       .  S
O352      Zr1267   2.384   1_554  S
O353      Zr1268   2.375   1_554  S
O354        H358   0.966       .  S
O355      Zr1267   2.377   1_554  S
O355        H360   0.966       .  S
O373       Zr385   2.424       .  S
O373        C375   1.285       .  A
O374       Zr411   2.434       .  S
O374        C375   1.289       .  A
C375        C873   1.483       .  S
O376      Zr1306   2.433       .  S
O376        C378   1.286       .  A
O377       Zr412   2.444       .  S
O377        C378   1.288       .  A
C378        C570   1.476       .  S
O379       Zr388   2.430       .  S
O379       C1299   1.287       .  A
O380      Zr1329   2.443       .  S
O380       C1299   1.288       .  A
C381       O1297   1.286       .  A
C381       O1298   1.288       .  A
C381        C603   1.476       .  S
O382       Zr385   2.428       .  S
O382        C384   1.286       .  A
O383       Zr412   2.436       .  S
O383        C384   1.289       .  A
C384        C733   1.483       .  S
Zr385       O386   2.433       .  S
Zr385       O387   2.433       .  S
Zr385       O391   2.369       .  S
Zr385       O392   2.369       .  S
Zr385       O415   2.365       .  S
Zr385       O417   2.366       .  S
O386        H429   0.990       .  S
O387        H428   0.990       .  S
O387        H432   0.990       .  S
Zr388      O1294   2.428       .  S
Zr388       O390   2.436   1_556  S
Zr388      O1307   2.436       .  S
Zr388       O416   2.360   1_556  S
Zr388       O418   2.364   1_556  S
Zr388      O1310   2.359       .  S
Zr388      O1309   2.364       .  S
O389      Zr1306   2.437       .  S
O389        H430   0.990       .  S
O389        H433   0.990       .  S
O390        H423   0.990       .  S
O391       Zr411   2.378       .  S
O391      Zr1306   2.364       .  S
O392       Zr412   2.380       .  S
O392      Zr1306   2.359       .  S
O392        H419   0.965       .  S
O393       Zr405   2.488       .  S
O393       C1313   1.297       .  A
O394       Zr412   2.409       .  S
O394       C1313   1.286       .  A
C395       O1311   1.297       .  A
C395       O1312   1.286       .  A
C395        C653   1.490       .  S
O396       Zr408   2.413       .  S
O396        C398   1.284       .  A
O397      Zr1329   2.439   1_554  S
O397        C398   1.289       .  A
C398        C863   1.481       .  S
O399       Zr408   2.416       .  S
O399        C401   1.283       .  A
O400      Zr1330   2.437       .  S
O400        C401   1.288       .  A
C401        C723   1.480       .  S
O402       Zr405   2.488       .  S
O402       C1322   1.297       .  A
O403       Zr411   2.415       .  S
O403       C1322   1.288       .  A
C404       O1320   1.296       .  A
C404       O1321   1.287       .  A
C404        C613   1.489       .  S
Zr405       O407   2.433       .  S
Zr405      O1324   2.438       .  S
Zr405       O417   2.387       .  S
Zr405       O415   2.386       .  S
Zr405      O1331   2.385       .  S
Zr405      O1332   2.386       .  S
O406      Zr1323   2.436       .  S
O406        H426   0.990       .  S
O406        H431   0.990       .  S
O407        H427   0.990       .  S
Zr408       O409   2.434       .  S
Zr408       O410   2.438       .  S
Zr408       O414   2.364       .  S
Zr408       O413   2.362       .  S
Zr408       O418   2.369       .  S
Zr408       O416   2.371       .  S
O409        H425   0.990       .  S
O410        H424   0.991       .  S
O410        H434   0.990       .  S
Zr411      O1298   2.444       .  S
Zr411      O1315   2.438       .  S
Zr411       O417   2.398       .  S
Zr411      O1332   2.389       .  S
Zr411      O1334   2.382       .  S
Zr412      O1318   2.435       .  S
Zr412       O415   2.392       .  S
Zr412      O1331   2.394       .  S
Zr412      O1336   2.378       .  S
O413      Zr1323   2.386       .  S
O413      Zr1330   2.392       .  S
O413        H421   0.966       .  S
O414      Zr1323   2.386       .  S
O414      Zr1329   2.389   1_554  S
O416      Zr1329   2.380   1_554  S
O416        H420   0.966       .  S
O417        H422   0.966       .  S
O418      Zr1330   2.374       .  S
O435       Zr447   2.434       .  S
O435       C1355   1.288       .  A
O436      Zr1391   2.441   1_556  S
O436       C1355   1.288       .  A
C437       O1353   1.287       .  A
C437       O1354   1.287       .  A
C437        C593   1.477       .  S
O438       Zr450   2.438       .  S
O438        C440   1.288       .  A
O439       Zr474   2.432       .  S
O439        C440   1.288       .  A
C440        C750   1.484       .  S
O441       Zr450   2.433       .  S
O441        C443   1.287       .  A
O442       Zr473   2.429       .  S
O442        C443   1.288       .  A
C443        C810   1.482       .  S
O444       Zr447   2.424       .  S
O444       C1364   1.285       .  A
O445       Zr474   2.444       .  S
O445        C446   1.288       .  A
C446       O1362   1.286       .  A
C446        C573   1.476       .  S
Zr447       O449   2.434   1_556  S
Zr447      O1366   2.435       .  S
Zr447       O477   2.367   1_556  S
Zr447       O479   2.359   1_556  S
Zr447      O1371   2.362       .  S
Zr447      O1372   2.360       .  S
O448      Zr1365   2.433       .  S
O448        H491   0.990       .  S
O449        H490   0.990       .  S
O449        H494   0.990       .  S
Zr450       O451   2.436       .  S
Zr450       O452   2.435       .  S
Zr450       O454   2.370       .  S
Zr450       O453   2.370       .  S
Zr450       O478   2.365       .  S
Zr450       O480   2.368       .  S
O451        H492   0.990       .  S
O451        H495   0.990       .  S
O452        H485   0.990       .  S
O453       Zr473   2.374       .  S
O453      Zr1365   2.363       .  S
O454       Zr474   2.384       .  S
O454      Zr1365   2.362       .  S
O454        H481   0.966       .  S
O455       Zr467   2.413       .  S
O455        C457   1.283       .  A
O456      Zr1392   2.436       .  S
O456        C457   1.288       .  A
C457        C743   1.478       .  S
O458       Zr470   2.484       .  S
O458       C1378   1.296       .  A
O459       Zr473   2.403       .  S
O459       C1378   1.286       .  A
C460       O1376   1.297       .  A
C460       O1377   1.287       .  A
C460        C623   1.492       .  S
O461       Zr470   2.491       .  S
O461       C1381   1.297       .  A
O462       Zr474   2.410       .  S
O462       C1381   1.286       .  A
C463       O1379   1.297       .  A
C463       O1380   1.286       .  A
C463        C560   1.488       .  S
O464       Zr467   2.417       .  S
O464        C466   1.284       .  A
O465      Zr1391   2.440       .  S
O465        C466   1.289       .  A
C466        C800   1.481       .  S
Zr467       O468   2.436       .  S
Zr467       O469   2.435       .  S
Zr467       O475   2.358       .  S
Zr467       O476   2.362       .  S
Zr467       O479   2.372       .  S
Zr467       O477   2.375       .  S
O468        H488   0.990       .  S
O468        H493   0.990       .  S
O469        H489   0.990       .  S
Zr470       O472   2.436       .  S
Zr470      O1389   2.435       .  S
Zr470       O480   2.383       .  S
Zr470       O478   2.385       .  S
Zr470      O1394   2.387       .  S
Zr470      O1393   2.386       .  S
O471      Zr1388   2.434       .  S
O471        H487   0.990       .  S
O472        H486   0.990       .  S
O472        H496   0.990       .  S
Zr473      O1354   2.437       .  S
Zr473      O1383   2.438       .  S
Zr473       O478   2.397       .  S
Zr473      O1394   2.385       .  S
Zr473      O1397   2.375       .  S
Zr474      O1374   2.440       .  S
Zr474       O480   2.397       .  S
Zr474      O1393   2.392       .  S
Zr474      O1395   2.376       .  S
O475      Zr1388   2.385       .  S
O475      Zr1392   2.392       .  S
O475        H483   0.966       .  S
O476      Zr1388   2.386       .  S
O476      Zr1391   2.387       .  S
O477      Zr1392   2.377       .  S
O478        H482   0.966       .  S
O479      Zr1391   2.378       .  S
O479        H484   0.966       .  S
O497       Zr509   2.426       .  S
O497        C499   1.285       .  A
O498       Zr535   2.430       .  S
O498        C499   1.288       .  A
C499        C913   1.481       .  S
O500      Zr1430   2.427       .  S
O500        C502   1.286       .  A
O501       Zr536   2.451       .  S
O501        C502   1.289       .  A
C502        C673   1.479       .  S
O503       Zr512   2.430       .  S
O503       C1423   1.286       .  A
O504      Zr1453   2.442       .  S
O504       C1423   1.288       .  A
C505       O1421   1.286       .  A
C505       O1422   1.289       .  A
C505        C633   1.480       .  S
O506       Zr509   2.430       .  S
O506        C508   1.287       .  A
O507       Zr536   2.434       .  S
O507        C508   1.289       .  A
C508        C693   1.482       .  S
Zr509       O510   2.434       .  S
Zr509       O511   2.434       .  S
Zr509       O515   2.368       .  S
Zr509       O516   2.371       .  S
Zr509       O539   2.368       .  S
Zr509       O541   2.366       .  S
O510        H553   0.990       .  S
O511        H552   0.990       .  S
O511        H556   0.990       .  S
Zr512      O1418   2.427       .  S
Zr512       O514   2.436   1_556  S
Zr512      O1431   2.436       .  S
Zr512       O540   2.362   1_556  S
Zr512       O542   2.367   1_556  S
Zr512      O1434   2.362       .  S
Zr512      O1433   2.362       .  S
O513      Zr1430   2.436       .  S
O513        H554   0.990       .  S
O513        H557   0.990       .  S
O514        H547   0.990       .  S
O515       Zr535   2.375       .  S
O515      Zr1430   2.360       .  S
O516       Zr536   2.381       .  S
O516      Zr1430   2.357       .  S
O516        H543   0.965       .  S
O517       Zr529   2.491       .  S
O517       C1437   1.297       .  A
O518       Zr536   2.412       .  S
O518       C1437   1.287       .  A
C519       O1435   1.296       .  A
C519       O1436   1.288       .  A
C519        C563   1.489       .  S
O520       Zr532   2.417       .  S
O520        C522   1.284       .  A
O521      Zr1453   2.441   1_554  S
O521        C522   1.289       .  A
C522        C903   1.483       .  S
O523       Zr532   2.418       .  S
O523        C525   1.284       .  A
O524      Zr1454   2.432   1_554  S
O524        C525   1.288       .  A
C525        C683   1.479       .  S
O526       Zr529   2.489       .  S
O526       C1446   1.297       .  A
O527       Zr535   2.409       .  S
O527       C1446   1.286       .  A
C528       O1444   1.297       .  A
C528       O1445   1.287       .  A
C528        C583   1.494       .  S
Zr529       O531   2.435       .  S
Zr529      O1448   2.437       .  S
Zr529       O541   2.386       .  S
Zr529       O539   2.385       .  S
Zr529      O1455   2.385       .  S
Zr529      O1456   2.388       .  S
O530      Zr1447   2.435       .  S
O530        H550   0.990       .  S
O530        H555   0.990       .  S
O531        H551   0.990       .  S
Zr532       O533   2.434       .  S
Zr532       O534   2.436       .  S
Zr532       O538   2.364       .  S
Zr532       O537   2.362       .  S
Zr532       O542   2.369       .  S
Zr532       O540   2.368       .  S
O533        H549   0.990       .  S
O534        H548   0.990       .  S
O534        H558   0.990       .  S
Zr535      O1422   2.446       .  S
Zr535      O1439   2.432       .  S
Zr535       O541   2.399       .  S
Zr535      O1456   2.392       .  S
Zr535      O1458   2.379       .  S
Zr536      O1442   2.436       .  S
Zr536       O539   2.399       .  S
Zr536      O1455   2.393       .  S
Zr536      O1460   2.377       .  S
O537      Zr1447   2.386       .  S
O537      Zr1454   2.392   1_554  S
O537        H545   0.966       .  S
O538      Zr1447   2.387       .  S
O538      Zr1453   2.385   1_554  S
O540      Zr1453   2.379   1_554  S
O540        H544   0.966       .  S
O541        H546   0.966       .  S
O542      Zr1454   2.379   1_554  S
C559        C560   1.405       .  A
C559        C564   1.392       .  A
C559        H565   1.084       .  S
C560        C561   1.409   1_554  A
C561        C562   1.414       .  A
C561        H566   1.083       .  S
C562        C563   1.410   1_556  A
C562        H567   1.083       .  S
C563        C564   1.404       .  A
C564        H568   1.084       .  S
C569        C570   1.407       .  A
C569        C574   1.409       .  A
C569        H575   1.083       .  S
C570        C571   1.402       .  A
C571        C572   1.392       .  A
C571        H576   1.084       .  S
C572        C573   1.402       .  A
C572        H577   1.084       .  S
C573        C574   1.407       .  A
C574        H578   1.083       .  S
C579        C580   1.405       .  A
C579        C584   1.391   1_565  A
C579        H585   1.084       .  S
C580       C1499   1.410   1_554  A
C581        C582   1.414   1_565  A
C581       C1498   1.410       .  A
C581        H586   1.083       .  S
C582       C1501   1.409       .  A
C582        H587   1.083       .  S
C583        C584   1.405       .  A
C583       C1500   1.411   1_554  A
C584        H588   1.084       .  S
C589        C590   1.403       .  A
C589        C594   1.392       .  A
C589        H595   1.084       .  S
C590        C591   1.406       .  A
C591        C592   1.408       .  A
C591        H596   1.083       .  S
C592        C593   1.407       .  A
C592        H597   1.083       .  S
C593        C594   1.402       .  A
C594        H598   1.084       .  S
C599        C600   1.403       .  A
C599        C604   1.391       .  A
C599        H605   1.084       .  S
C600       C1519   1.407       .  A
C601        C602   1.409       .  A
C601       C1518   1.408   1_554  A
C601        H606   1.083       .  S
C602       C1521   1.408   1_554  A
C602        H607   1.083       .  S
C603        C604   1.402       .  A
C603       C1520   1.407       .  A
C604        H608   1.084       .  S
C609        C610   1.409   1_556  A
C609        C614   1.415   1_545  A
C609        H615   1.083       .  S
C610        C611   1.405       .  A
C611        C612   1.391   1_545  A
C611        H616   1.084       .  S
C612        C613   1.404       .  A
C612        H617   1.084       .  S
C613        C614   1.410   1_554  A
C614        H618   1.083       .  S
C619        C620   1.404       .  A
C619        C624   1.391   1_655  A
C619        H625   1.084       .  S
C620        C621   1.410   1_554  A
C621        C622   1.416   1_655  A
C621        H626   1.083       .  S
C622        C623   1.411   1_556  A
C622        H627   1.083       .  S
C623        C624   1.405       .  A
C624        H628   1.084       .  S
C629        C630   1.403       .  A
C629        C634   1.391       .  A
C629        H635   1.084       .  S
C630       C1549   1.408       .  A
C631        C632   1.408       .  A
C631       C1548   1.407   1_554  A
C631        H636   1.083       .  S
C632       C1551   1.407   1_554  A
C632        H637   1.083       .  S
C633        C634   1.402       .  A
C633       C1550   1.408       .  A
C634        H638   1.084       .  S
C639        C640   1.409   1_556  A
C639        C644   1.415   1_655  A
C639        H645   1.083       .  S
C640        C641   1.406       .  A
C641        C642   1.393   1_655  A
C641        H646   1.084       .  S
C642        C643   1.404       .  A
C642        H647   1.084       .  S
C643        C644   1.410   1_554  A
C644        H648   1.083       .  S
C649        C650   1.410   1_556  A
C649        C654   1.415       .  A
C649        H655   1.083       .  S
C650        C651   1.405       .  A
C651        C652   1.391       .  A
C651        H656   1.084       .  S
C652        C653   1.405       .  A
C652        H657   1.084       .  S
C653        C654   1.410   1_554  A
C654        H658   1.083       .  S
C659        C660   1.408       .  A
C659        C664   1.409       .  A
C659        H665   1.083       .  S
C660        C661   1.402       .  A
C661        C662   1.391       .  A
C661        H666   1.084       .  S
C662        C663   1.403       .  A
C662        H667   1.084       .  S
C663        C664   1.407       .  A
C664        H668   1.083       .  S
C669        C670   1.402       .  A
C669        C674   1.390       .  A
C669        H675   1.084       .  S
C670        C671   1.408       .  A
C671        C672   1.411       .  A
C671        H676   1.083       .  S
C672        C673   1.408       .  A
C672        H677   1.083       .  S
C673        C674   1.403       .  A
C674        H678   1.084       .  S
C679        C680   1.402       .  A
C679        C684   1.392       .  A
C679        H685   1.083       .  S
C680        C681   1.411       .  A
C681        C682   1.401       .  A
C681        H686   1.083       .  S
C682        C683   1.404       .  A
C682        H687   1.083       .  S
C683        C684   1.407       .  A
C684        H688   1.083       .  S
C689        C690   1.405       .  A
C689        C694   1.394       .  A
C689        H695   1.083       .  S
C690        C691   1.408       .  A
C691        C692   1.400       .  A
C691        H696   1.083       .  S
C692        C693   1.405       .  A
C692        H697   1.083       .  S
C693        C694   1.407       .  A
C694        H698   1.083       .  S
C699        C700   1.403       .  A
C699        C704   1.392       .  A
C699        H705   1.083       .  S
C700        C701   1.409       .  A
C701        C702   1.401       .  A
C701        H706   1.083       .  S
C702        C703   1.405       .  A
C702        H707   1.083       .  S
C703        C704   1.408       .  A
C704        H708   1.083       .  S
C709        C710   1.404       .  A
C709        C714   1.394       .  A
C709        H715   1.083       .  S
C710        C711   1.409       .  A
C711        C712   1.401       .  A
C711        H716   1.083       .  S
C712        C713   1.406       .  A
C712        H717   1.083       .  S
C713        C714   1.408       .  A
C714        H718   1.083       .  S
C719        C720   1.403       .  A
C719        C724   1.392       .  A
C719        H725   1.083       .  S
C720        C721   1.409       .  A
C721        C722   1.400       .  A
C721        H726   1.083       .  S
C722        C723   1.404       .  A
C722        H727   1.083       .  S
C723        C724   1.407       .  A
C724        H728   1.083       .  S
C729        C730   1.408       .  A
C729        C734   1.400       .  A
C729        H735   1.083       .  S
C730        C731   1.406       .  A
C731        C732   1.395       .  A
C731        H736   1.083       .  S
C732        C733   1.407       .  A
C732        H737   1.083       .  S
C733        C734   1.405       .  A
C734        H738   1.083       .  S
C739        C740   1.402       .  A
C739        C744   1.391       .  A
C739        H745   1.083       .  S
C740        C741   1.409       .  A
C741        C742   1.399       .  A
C741        H746   1.083       .  S
C742        C743   1.403       .  A
C742        H747   1.083       .  S
C743        C744   1.408       .  A
C744        H748   1.083       .  S
C749        C750   1.407       .  A
C749        C754   1.394       .  A
C749        H755   1.083       .  S
C750        C751   1.407       .  A
C751        C752   1.402       .  A
C751        H756   1.083       .  S
C752        C753   1.409       .  A
C752        H757   1.083       .  S
C753        C754   1.405       .  A
C754        H758   1.083       .  S
C759        C760   1.406       .  A
C759        C764   1.393       .  A
C759        H765   1.083       .  S
C760        C761   1.405       .  A
C761        C762   1.401       .  A
C761        H766   1.083       .  S
C762        C763   1.409       .  A
C762        H767   1.083       .  S
C763        C764   1.404       .  A
C764        H768   1.083       .  S
C769        C770   1.408       .  A
C769        C774   1.400       .  A
C769        H775   1.083       .  S
C770        C771   1.405       .  A
C771        C772   1.395       .  A
C771        H776   1.083       .  S
C772        C773   1.407       .  A
C772        H777   1.083       .  S
C773        C774   1.405       .  A
C774        H778   1.083       .  S
C779        C780   1.402       .  A
C779        C784   1.390       .  A
C779        H785   1.083       .  S
C780        C781   1.410       .  A
C781        C782   1.399       .  A
C781        H786   1.083       .  S
C782        C783   1.403       .  A
C782        H787   1.083       .  S
C783        C784   1.406       .  A
C784        H788   1.083       .  S
C789        C790   1.404       .  A
C789        C794   1.394       .  A
C789        H795   1.083       .  S
C790        C791   1.408       .  A
C791        C792   1.398       .  A
C791        H796   1.083       .  S
C792        C793   1.405       .  A
C792        H797   1.083       .  S
C793        C794   1.407       .  A
C794        H798   1.083       .  S
C799        C800   1.408       .  A
C799        C804   1.394       .  A
C799        H805   1.083       .  S
C800        C801   1.404       .  A
C801        C802   1.400       .  A
C801        H806   1.083       .  S
C802        C803   1.409       .  A
C802        H807   1.083       .  S
C803        C804   1.404       .  A
C804        H808   1.083       .  S
C809        C810   1.406       .  A
C809        C814   1.395       .  A
C809        H815   1.083       .  S
C810        C811   1.406       .  A
C811        C812   1.401       .  A
C811        H816   1.083       .  S
C812        C813   1.409       .  A
C812        H817   1.083       .  S
C813        C814   1.406       .  A
C814        H818   1.083       .  S
C819        C820   1.410       .  A
C819        C824   1.399       .  A
C819        H825   1.083       .  S
C820        C821   1.403       .  A
C821        C822   1.392       .  A
C821        H826   1.083       .  S
C822        C823   1.408       .  A
C822        H827   1.083       .  S
C823        C824   1.403       .  A
C824        H828   1.083       .  S
C829        C830   1.407       .  A
C829        C834   1.398       .  A
C829        H835   1.083       .  S
C830        C831   1.405       .  A
C831        C832   1.392       .  A
C831        H836   1.083       .  S
C832        C833   1.406       .  A
C832        H837   1.083       .  S
C833        C834   1.405       .  A
C834        H838   1.083       .  S
C839        C840   1.409       .  A
C839        C844   1.400       .  A
C839        H845   1.083       .  S
C840        C841   1.403       .  A
C841        C842   1.392       .  A
C841        H846   1.083       .  S
C842        C843   1.407       .  A
C842        H847   1.083       .  S
C843        C844   1.404       .  A
C844        H848   1.083       .  S
C849        C850   1.408       .  A
C849        C854   1.399       .  A
C849        H855   1.083       .  S
C850        C851   1.404       .  A
C851        C852   1.392       .  A
C851        H856   1.083       .  S
C852        C853   1.406       .  A
C852        H857   1.083       .  S
C853        C854   1.404       .  A
C854        H858   1.083       .  S
C859        C860   1.410       .  A
C859        C864   1.401       .  A
C859        H865   1.083       .  S
C860        C861   1.401       .  A
C861        C862   1.390       .  A
C861        H866   1.083       .  S
C862        C863   1.408       .  A
C862        H867   1.083       .  S
C863        C864   1.404       .  A
C864        H868   1.083       .  S
C869        C870   1.404       .  A
C869        C874   1.394       .  A
C869        H875   1.083       .  S
C870        C871   1.409       .  A
C871        C872   1.401       .  A
C871        H876   1.083       .  S
C872        C873   1.405       .  A
C872        H877   1.083       .  S
C873        C874   1.408       .  A
C874        H878   1.083       .  S
C879        C880   1.403       .  A
C879        C884   1.392       .  A
C879        H885   1.083       .  S
C880        C881   1.409       .  A
C881        C882   1.400       .  A
C881        H886   1.083       .  S
C882        C883   1.404       .  A
C882        H887   1.083       .  S
C883        C884   1.408       .  A
C884        H888   1.083       .  S
C889        C890   1.408       .  A
C889        C894   1.398       .  A
C889        H895   1.083       .  S
C890        C891   1.404       .  A
C891        C892   1.393       .  A
C891        H896   1.083       .  S
C892        C893   1.405       .  A
C892        H897   1.083       .  S
C893        C894   1.404       .  A
C894        H898   1.083       .  S
C899        C900   1.402       .  A
C899        C904   1.392       .  A
C899        H905   1.083       .  S
C900        C901   1.411       .  A
C901        C902   1.401       .  A
C901        H906   1.083       .  S
C902        C903   1.404       .  A
C902        H907   1.083       .  S
C903        C904   1.409       .  A
C904        H908   1.083       .  S
C909        C910   1.404       .  A
C909        C914   1.393       .  A
C909        H915   1.083       .  S
C910        C911   1.408       .  A
C911        C912   1.400       .  A
C911        H916   1.083       .  S
C912        C913   1.405       .  A
C912        H917   1.083       .  S
C913        C914   1.407       .  A
C914        H918   1.083       .  S
O919       Zr931   2.441       .  S
O919        C921   1.289       .  A
O920       Zr957   2.415       .  S
O920        C921   1.285       .  A
C921       C1828   1.482       .  S
O922       Zr934   2.447       .  S
O922        C924   1.289       .  A
O923       Zr958   2.408   1_565  S
O923        C924   1.283       .  A
C924       C1758   1.480       .  S
O925       Zr934   2.443       .  S
O925        C927   1.289       .  A
O926       Zr957   2.415   1_565  S
O926        C927   1.285       .  A
C927       C1768   1.483       .  S
O928       Zr931   2.447       .  S
O928        C930   1.290       .  A
O929       Zr958   2.405       .  S
O929        C930   1.283       .  A
C930       C1818   1.479       .  S
Zr931       O932   2.434       .  S
Zr931       O933   2.435       .  S
Zr931       O937   2.370       .  S
Zr931       O938   2.369       .  S
Zr931       O961   2.372       .  S
Zr931       O963   2.375       .  S
O932        H975   0.990       .  S
O933        H974   0.990       .  S
O933        H978   0.990       .  S
Zr934       O935   2.436       .  S
Zr934       O936   2.435       .  S
Zr934       O938   2.369   1_565  S
Zr934       O937   2.368   1_565  S
Zr934       O962   2.373       .  S
Zr934       O964   2.373       .  S
O935        H976   0.990       .  S
O935        H979   0.990       .  S
O936        H969   0.990       .  S
O937       Zr957   2.375       .  S
O938       Zr958   2.382       .  S
O938        H965   0.965       .  S
O939       Zr951   2.444       .  S
O939        C941   1.289       .  A
O940       Zr958   2.408       .  S
O940        C941   1.283       .  A
C941       C1798   1.480       .  S
O942       Zr954   2.443       .  S
O942        C944   1.289       .  A
O943       Zr957   2.417   1_565  S
O943        C944   1.285       .  A
C944       C1788   1.483       .  S
O945       Zr954   2.445       .  S
O945        C947   1.290       .  A
O946       Zr958   2.407   1_565  S
O946        C947   1.283       .  A
C947       C1778   1.480       .  S
O948       Zr951   2.438       .  S
O948        C950   1.288       .  A
O949       Zr957   2.412       .  S
O949        C950   1.284       .  A
C950       C1808   1.480       .  S
Zr951       O952   2.438       .  S
Zr951       O953   2.433       .  S
Zr951       O959   2.368       .  S
Zr951       O960   2.370       .  S
Zr951       O963   2.374       .  S
Zr951       O961   2.372       .  S
O952        H972   0.990       .  S
O952        H977   0.990       .  S
O953        H973   0.990       .  S
Zr954       O955   2.434       .  S
Zr954       O956   2.434       .  S
Zr954       O960   2.368   1_565  S
Zr954       O959   2.368   1_565  S
Zr954       O964   2.371       .  S
Zr954       O962   2.373       .  S
O955        H971   0.990       .  S
O956        H970   0.990       .  S
O956        H980   0.990       .  S
Zr957       O960   2.375       .  S
Zr957       O962   2.385   1_545  S
Zr957       O963   2.385       .  S
Zr958       O959   2.380       .  S
Zr958       O961   2.380       .  S
Zr958       O964   2.381   1_545  S
O959        H967   0.965       .  S
O962        H966   0.966       .  S
O963        H968   0.965       .  S
O981       Zr993   2.447       .  S
O981        C983   1.290       .  A
O982      Zr1019   2.409       .  S
O982        C983   1.284       .  A
C983       C1748   1.482       .  S
O984       Zr996   2.452       .  S
O984        C986   1.290       .  A
O985      Zr1020   2.413   1_655  S
O985        C986   1.284       .  A
C986       C1681   1.483       .  S
O987       Zr996   2.445       .  S
O987        C989   1.290       .  A
O988      Zr1019   2.413   1_655  S
O988        C989   1.284       .  A
C989       C1688   1.483       .  S
O990       Zr993   2.455       .  S
O990        C992   1.291       .  A
O991      Zr1020   2.404       .  S
O991        C992   1.283       .  A
C992       C1738   1.482       .  S
Zr993       O994   2.433       .  S
Zr993       O995   2.433       .  S
Zr993       O999   2.370       .  S
Zr993      O1000   2.368       .  S
Zr993      O1023   2.372       .  S
Zr993      O1025   2.373       .  S
O994       H1037   0.990       .  S
O995       H1036   0.990       .  S
O995       H1040   0.990       .  S
Zr996       O997   2.437       .  S
Zr996       O998   2.435       .  S
Zr996      O1000   2.369   1_655  S
Zr996       O999   2.371   1_655  S
Zr996      O1024   2.377       .  S
Zr996      O1026   2.376       .  S
O997       H1038   0.990       .  S
O997       H1041   0.990       .  S
O998       H1031   0.990       .  S
O999      Zr1019   2.379       .  S
O1000     Zr1020   2.381       .  S
O1000      H1027   0.966       .  S
O1001     Zr1013   2.451       .  S
O1001      C1003   1.290       .  A
O1002     Zr1020   2.411       .  S
O1002      C1003   1.284       .  A
C1003      C1721   1.482       .  S
O1004     Zr1016   2.449       .  S
O1004      C1006   1.290       .  A
O1005     Zr1019   2.410   1_655  S
O1005      C1006   1.284       .  A
C1006      C1708   1.484       .  S
O1007     Zr1016   2.456       .  S
O1007      C1009   1.291       .  A
O1008     Zr1020   2.406   1_655  S
O1008      C1009   1.283       .  A
C1009      C1698   1.482       .  S
O1010     Zr1013   2.449       .  S
O1010      C1012   1.290       .  A
O1011     Zr1019   2.422       .  S
O1011      C1012   1.286       .  A
C1012      C1731   1.487       .  S
Zr1013     O1014   2.438       .  S
Zr1013     O1015   2.434       .  S
Zr1013     O1021   2.370   1_455  S
Zr1013     O1022   2.369   1_455  S
Zr1013     O1025   2.374       .  S
Zr1013     O1023   2.374       .  S
O1014      H1034   0.990       .  S
O1014      H1039   0.990       .  S
O1015      H1035   0.990       .  S
Zr1016     O1017   2.433       .  S
Zr1016     O1018   2.434       .  S
Zr1016     O1022   2.371       .  S
Zr1016     O1021   2.369       .  S
Zr1016     O1026   2.374       .  S
Zr1016     O1024   2.373       .  S
O1017      H1033   0.990       .  S
O1018      H1032   0.990       .  S
O1018      H1042   0.990       .  S
Zr1019     O1022   2.376   1_455  S
Zr1019     O1024   2.388   1_455  S
Zr1019     O1025   2.383       .  S
Zr1020     O1021   2.382   1_455  S
Zr1020     O1023   2.380       .  S
Zr1020     O1026   2.382   1_455  S
O1021      H1029   0.966       .  S
O1024      H1028   0.967       .  S
O1025      H1030   0.968       .  S
O1043     Zr1055   2.440       .  S
O1043      C1045   1.289       .  A
O1044     Zr1081   2.416       .  S
O1044      C1045   1.285       .  A
C1045      C1671   1.482       .  S
O1046     Zr1058   2.453       .  S
O1046      C1048   1.290       .  A
O1047     Zr1082   2.407       .  S
O1047      C1048   1.283       .  A
C1048      C1598   1.483       .  S
O1049     Zr1058   2.440       .  S
O1049      C1051   1.289       .  A
O1050     Zr1081   2.410       .  S
O1050      C1051   1.284       .  A
C1051      C1608   1.480       .  S
O1052     Zr1055   2.445       .  S
O1052      C1054   1.290       .  A
O1053     Zr1082   2.413       .  S
O1053      C1054   1.284       .  A
C1054      C1658   1.482       .  S
Zr1055     O1056   2.434       .  S
Zr1055     O1057   2.435       .  S
Zr1055     O1061   2.368       .  S
Zr1055     O1062   2.372       .  S
Zr1055     O1085   2.371       .  S
Zr1055     O1087   2.373       .  S
O1056      H1099   0.990       .  S
O1057      H1098   0.990       .  S
O1057      H1102   0.990       .  S
Zr1058     O1059   2.436       .  S
Zr1058     O1060   2.435       .  S
Zr1058     O1062   2.367       .  S
Zr1058     O1061   2.370       .  S
Zr1058     O1086   2.378       .  S
Zr1058     O1088   2.370       .  S
O1059      H1100   0.990       .  S
O1059      H1103   0.990       .  S
O1060      H1093   0.990       .  S
O1061     Zr1081   2.374       .  S
O1062     Zr1082   2.380       .  S
O1062      H1089   0.966       .  S
O1063     Zr1075   2.449       .  S
O1063      C1065   1.290       .  A
O1064     Zr1082   2.399       .  S
O1064      C1065   1.282       .  A
C1065      C1638   1.478       .  S
O1066     Zr1078   2.444       .  S
O1066      C1068   1.289       .  A
O1067     Zr1081   2.415       .  S
O1067      C1068   1.285       .  A
C1068      C1628   1.483       .  S
O1069     Zr1078   2.449       .  S
O1069      C1071   1.290       .  A
O1070     Zr1082   2.411       .  S
O1070      C1071   1.284       .  A
C1071      C1618   1.483       .  S
O1072     Zr1075   2.443       .  S
O1072      C1074   1.290       .  A
O1073     Zr1081   2.413       .  S
O1073      C1074   1.284       .  A
C1074      C1648   1.482       .  S
Zr1075     O1076   2.438       .  S
Zr1075     O1077   2.433       .  S
Zr1075     O1083   2.367       .  S
Zr1075     O1084   2.367       .  S
Zr1075     O1087   2.375       .  S
Zr1075     O1085   2.374       .  S
O1076      H1096   0.990       .  S
O1076      H1101   0.990       .  S
O1077      H1097   0.990       .  S
Zr1078     O1079   2.435       .  S
Zr1078     O1080   2.432       .  S
Zr1078     O1084   2.366       .  S
Zr1078     O1083   2.368       .  S
Zr1078     O1088   2.373       .  S
Zr1078     O1086   2.374       .  S
O1079      H1095   0.990       .  S
O1080      H1094   0.990       .  S
O1080      H1104   0.990       .  S
Zr1081     O1084   2.375       .  S
Zr1081     O1086   2.386       .  S
Zr1081     O1087   2.384       .  S
Zr1082     O1083   2.382       .  S
Zr1082     O1085   2.380       .  S
Zr1082     O1088   2.379       .  S
O1083      H1091   0.966       .  S
O1086      H1090   0.968       .  S
O1087      H1092   0.968       .  S
O1105     Zr1117   2.433       .  S
C1107      C1578   1.479       .  S
O1108     Zr1120   2.430       .  S
O1108      C1110   1.286       .  A
O1109     Zr1144   2.434   1_556  S
O1109      C1110   1.288       .  A
C1110      C1631   1.483       .  S
O1111     Zr1120   2.428       .  S
O1111      C1113   1.286       .  A
O1112     Zr1143   2.430       .  S
O1112      C1113   1.288       .  A
C1113      C1691   1.482       .  S
O1114      C1116   1.286       .  A
O1115     Zr1144   2.443   1_556  S
O1115      C1116   1.288       .  A
C1116      C1588   1.475       .  S
Zr1117     O1119   2.434       .  S
Zr1117     O1147   2.364       .  S
Zr1117     O1149   2.363       .  S
O1118      H1161   0.990       .  S
O1119      H1160   0.990       .  S
O1119      H1164   0.990       .  S
Zr1120     O1121   2.437       .  S
Zr1120     O1122   2.435       .  S
Zr1120     O1124   2.369       .  S
Zr1120     O1123   2.370       .  S
Zr1120     O1148   2.368       .  S
Zr1120     O1150   2.370       .  S
O1121      H1162   0.990       .  S
O1121      H1165   0.990       .  S
O1122      H1155   0.990       .  S
O1123     Zr1143   2.377       .  S
O1124     Zr1144   2.383   1_556  S
O1124      H1151   0.966       .  S
O1125     Zr1137   2.417       .  S
O1125      C1127   1.284       .  A
O1126      C1127   1.289       .  A
C1127      C1621   1.482       .  S
O1128     Zr1140   2.492       .  S
O1129     Zr1143   2.408   1_554  S
C1130      C1558   1.490       .  S
O1131     Zr1140   2.495       .  S
O1132     Zr1144   2.410       .  S
C1133      C1568   1.491       .  S
O1134     Zr1137   2.419       .  S
O1134      C1136   1.284       .  A
O1135      C1136   1.289       .  A
C1136      C1678   1.479       .  S
Zr1137     O1138   2.433       .  S
Zr1137     O1139   2.435       .  S
Zr1137     O1145   2.366       .  S
Zr1137     O1146   2.368       .  S
Zr1137     O1149   2.370       .  S
Zr1137     O1147   2.370       .  S
O1138      H1158   0.990       .  S
O1138      H1163   0.990       .  S
O1139      H1159   0.990       .  S
Zr1140     O1142   2.432   1_554  S
Zr1140     O1150   2.383   1_554  S
Zr1140     O1148   2.385   1_554  S
O1141      H1157   0.990       .  S
O1142      H1156   0.990       .  S
O1142      H1166   0.990       .  S
Zr1143     O1148   2.400       .  S
Zr1144     O1150   2.395   1_554  S
O1145      H1153   0.966       .  S
O1148      H1152   0.966       .  S
O1149      H1154   0.966       .  S
O1167     Zr1179   2.425       .  S
C1169      C1548   1.479       .  S
O1170     Zr1182   2.436       .  S
O1170      C1172   1.287       .  A
O1171     Zr1206   2.429       .  S
O1171      C1172   1.288       .  A
C1172      C1711   1.483       .  S
O1173     Zr1182   2.420       .  S
O1173      C1175   1.285       .  A
O1174     Zr1205   2.433   1_556  S
O1174      C1175   1.289       .  A
C1175      C1811   1.478       .  S
O1176      C1178   1.286       .  A
O1177     Zr1206   2.449       .  S
O1177      C1178   1.289       .  A
C1178      C1581   1.479       .  S
Zr1179     O1181   2.433       .  S
Zr1179     O1209   2.365       .  S
Zr1179     O1211   2.360       .  S
O1180      H1223   0.990       .  S
O1181      H1222   0.990       .  S
O1181      H1226   0.990       .  S
Zr1182     O1183   2.439       .  S
Zr1182     O1184   2.434       .  S
Zr1182     O1186   2.364       .  S
Zr1182     O1185   2.370       .  S
Zr1182     O1210   2.368       .  S
Zr1182     O1212   2.367       .  S
O1183      H1224   0.990       .  S
O1183      H1227   0.990       .  S
O1184      H1217   0.990       .  S
O1185     Zr1205   2.376   1_556  S
O1186     Zr1206   2.382       .  S
O1186      H1213   0.966       .  S
O1187     Zr1199   2.411       .  S
O1187      C1189   1.283       .  A
O1188      C1189   1.288       .  A
C1189      C1701   1.478       .  S
O1190     Zr1202   2.488       .  S
O1191     Zr1205   2.404       .  S
C1192      C1528   1.492       .  S
O1193     Zr1202   2.485       .  S
O1194     Zr1206   2.414   1_554  S
C1195      C1538   1.488       .  S
O1196     Zr1199   2.415       .  S
O1196      C1198   1.283       .  A
O1197      C1198   1.289       .  A
C1198      C1801   1.480       .  S
Zr1199     O1200   2.436       .  S
Zr1199     O1201   2.433       .  S
Zr1199     O1207   2.360       .  S
Zr1199     O1208   2.363       .  S
Zr1199     O1211   2.369       .  S
Zr1199     O1209   2.373       .  S
O1200      H1220   0.990       .  S
O1200      H1225   0.990       .  S
O1201      H1221   0.990       .  S
Zr1202     O1204   2.434   1_554  S
Zr1202     O1212   2.384   1_554  S
Zr1202     O1210   2.380   1_554  S
O1203      H1219   0.990       .  S
O1204      H1218   0.990       .  S
O1204      H1228   0.990       .  S
Zr1205     O1210   2.398   1_554  S
Zr1206     O1212   2.394       .  S
O1207      H1215   0.965       .  S
O1210      H1214   0.966       .  S
O1211      H1216   0.966       .  S
O1229     Zr1241   2.421       .  S
C1231      C1518   1.478       .  S
O1232     Zr1244   2.438       .  S
O1232      C1234   1.287       .  A
O1233     Zr1268   2.426       .  S
O1233      C1234   1.287       .  A
C1234      C1751   1.480       .  S
O1235     Zr1244   2.429       .  S
O1235      C1237   1.287       .  A
O1236     Zr1267   2.426       .  S
O1236      C1237   1.287       .  A
C1237      C1771   1.481       .  S
O1238      C1240   1.286       .  A
O1239     Zr1268   2.450       .  S
O1239      C1240   1.289       .  A
C1240      C1508   1.478       .  S
Zr1241     O1243   2.434       .  S
Zr1241     O1271   2.366       .  S
Zr1241     O1273   2.362       .  S
O1242      H1285   0.990       .  S
O1243      H1284   0.990       .  S
O1243      H1288   0.990       .  S
Zr1244     O1245   2.438       .  S
Zr1244     O1246   2.435       .  S
Zr1244     O1248   2.370       .  S
Zr1244     O1247   2.371       .  S
Zr1244     O1272   2.367       .  S
Zr1244     O1274   2.364       .  S
O1245      H1286   0.990       .  S
O1245      H1289   0.990       .  S
O1246      H1279   0.990       .  S
O1247     Zr1267   2.379       .  S
O1248     Zr1268   2.385       .  S
O1248      H1275   0.964       .  S
O1249     Zr1261   2.408       .  S
O1249      C1251   1.282       .  A
O1250      C1251   1.289       .  A
C1251      C1741   1.478       .  S
O1252     Zr1264   2.486       .  S
O1253     Zr1267   2.411   1_554  S
C1254      C1498   1.489       .  S
O1255     Zr1264   2.487       .  S
O1256     Zr1268   2.416   1_554  S
C1257      C1561   1.490       .  S
O1258     Zr1261   2.413       .  S
O1258      C1260   1.283       .  A
O1259      C1260   1.289       .  A
C1260      C1761   1.482       .  S
Zr1261     O1262   2.434       .  S
Zr1261     O1263   2.433       .  S
Zr1261     O1269   2.362       .  S
Zr1261     O1270   2.365       .  S
Zr1261     O1273   2.368       .  S
Zr1261     O1271   2.372       .  S
O1262      H1282   0.990       .  S
O1262      H1287   0.990       .  S
O1263      H1283   0.990       .  S
Zr1264     O1266   2.434   1_554  S
Zr1264     O1274   2.382   1_554  S
Zr1264     O1272   2.383   1_554  S
O1265      H1281   0.990       .  S
O1266      H1280   0.990       .  S
O1266      H1290   0.990       .  S
Zr1267     O1272   2.399       .  S
Zr1268     O1274   2.395       .  S
O1269      H1277   0.966       .  S
O1272      H1276   0.966       .  S
O1273      H1278   0.966       .  S
O1291     Zr1303   2.429       .  S
O1291      C1293   1.287       .  A
O1292     Zr1329   2.433       .  S
O1292      C1293   1.288       .  A
C1293      C1791   1.485       .  S
O1294      C1296   1.285       .  A
O1295     Zr1330   2.440   1_556  S
O1295      C1296   1.287       .  A
C1296      C1488   1.474       .  S
O1297     Zr1306   2.426       .  S
C1299      C1521   1.479       .  S
O1300     Zr1303   2.431       .  S
O1300      C1302   1.287       .  A
O1301     Zr1330   2.432   1_556  S
O1301      C1302   1.288       .  A
C1302      C1651   1.483       .  S
Zr1303     O1304   2.433       .  S
Zr1303     O1305   2.434       .  S
Zr1303     O1309   2.370       .  S
Zr1303     O1310   2.369       .  S
Zr1303     O1333   2.364       .  S
Zr1303     O1335   2.364       .  S
O1304      H1347   0.990       .  S
O1305      H1346   0.990       .  S
O1305      H1350   0.990       .  S
Zr1306     O1308   2.435       .  S
Zr1306     O1334   2.364       .  S
Zr1306     O1336   2.365       .  S
O1307      H1348   0.990       .  S
O1307      H1351   0.990       .  S
O1308      H1341   0.990       .  S
O1309     Zr1329   2.378       .  S
O1310     Zr1330   2.381   1_556  S
O1310      H1337   0.965       .  S
O1311     Zr1323   2.490       .  S
O1312     Zr1330   2.407       .  S
C1313      C1571   1.490       .  S
O1314     Zr1326   2.412       .  S
O1314      C1316   1.283       .  A
O1315      C1316   1.289       .  A
C1316      C1781   1.479       .  S
O1317     Zr1326   2.410       .  S
O1317      C1319   1.282       .  A
O1318      C1319   1.288       .  A
C1319      C1641   1.478       .  S
O1320     Zr1323   2.487       .  S
O1321     Zr1329   2.411   1_554  S
C1322      C1531   1.492       .  S
Zr1323     O1325   2.433   1_554  S
Zr1323     O1335   2.386   1_554  S
Zr1323     O1333   2.385   1_554  S
O1324      H1344   0.990       .  S
O1324      H1349   0.990       .  S
O1325      H1345   0.990       .  S
Zr1326     O1327   2.435       .  S
Zr1326     O1328   2.437       .  S
Zr1326     O1332   2.363       .  S
Zr1326     O1331   2.359       .  S
Zr1326     O1336   2.371       .  S
Zr1326     O1334   2.370       .  S
O1327      H1343   0.990       .  S
O1328      H1342   0.990       .  S
O1328      H1352   0.990       .  S
Zr1329     O1335   2.398       .  S
Zr1330     O1333   2.394   1_554  S
O1331      H1339   0.966       .  S
O1334      H1338   0.966       .  S
O1335      H1340   0.966       .  S
O1353     Zr1365   2.432       .  S
C1355      C1511   1.478       .  S
O1356     Zr1368   2.429       .  S
O1356      C1358   1.285       .  A
O1357     Zr1392   2.434   1_556  S
O1357      C1358   1.288       .  A
C1358      C1668   1.483       .  S
O1359     Zr1368   2.432       .  S
O1359      C1361   1.287       .  A
O1360     Zr1391   2.431   1_556  S
O1360      C1361   1.288       .  A
C1361      C1728   1.482       .  S
O1362     Zr1365   2.430       .  S
O1363     Zr1392   2.446   1_556  S
O1363      C1364   1.288       .  A
C1364      C1491   1.474       .  S
Zr1365     O1367   2.436       .  S
Zr1365     O1395   2.366       .  S
Zr1365     O1397   2.358       .  S
O1366      H1409   0.990       .  S
O1367      H1408   0.990       .  S
O1367      H1412   0.990       .  S
Zr1368     O1369   2.438       .  S
Zr1368     O1370   2.434       .  S
Zr1368     O1372   2.370       .  S
Zr1368     O1371   2.370       .  S
Zr1368     O1396   2.364       .  S
Zr1368     O1398   2.368       .  S
O1369      H1410   0.990       .  S
O1369      H1413   0.990       .  S
O1370      H1403   0.990       .  S
O1371     Zr1391   2.376   1_556  S
O1372     Zr1392   2.381   1_556  S
O1372      H1399   0.966       .  S
O1373     Zr1385   2.411       .  S
O1373      C1375   1.283       .  A
O1374      C1375   1.289       .  A
C1375      C1661   1.480       .  S
O1376     Zr1388   2.490       .  S
O1377     Zr1391   2.411       .  S
C1378      C1541   1.487       .  S
O1379     Zr1388   2.487       .  S
O1380     Zr1392   2.410       .  S
C1381      C1478   1.489       .  S
O1382     Zr1385   2.418       .  S
O1382      C1384   1.284       .  A
O1383      C1384   1.289       .  A
C1384      C1718   1.480       .  S
Zr1385     O1386   2.433       .  S
Zr1385     O1387   2.433       .  S
Zr1385     O1393   2.365       .  S
Zr1385     O1394   2.363       .  S
Zr1385     O1397   2.367       .  S
Zr1385     O1395   2.371       .  S
O1386      H1406   0.990       .  S
O1386      H1411   0.990       .  S
O1387      H1407   0.990       .  S
Zr1388     O1390   2.434   1_554  S
Zr1388     O1398   2.384   1_554  S
Zr1388     O1396   2.383   1_554  S
O1389      H1405   0.990       .  S
O1390      H1404   0.990       .  S
O1390      H1414   0.990       .  S
Zr1391     O1396   2.396   1_554  S
Zr1392     O1398   2.396   1_554  S
O1393      H1401   0.966       .  S
O1396      H1400   0.966       .  S
O1397      H1402   0.966       .  S
O1415     Zr1427   2.426       .  S
O1415      C1417   1.286       .  A
O1416     Zr1453   2.424       .  S
O1416      C1417   1.287       .  A
C1417      C1831   1.479       .  S
O1418      C1420   1.286       .  A
O1419     Zr1454   2.448       .  S
O1419      C1420   1.289       .  A
C1420      C1591   1.477       .  S
O1421     Zr1430   2.427       .  S
C1423      C1551   1.478       .  S
O1424     Zr1427   2.428       .  S
O1424      C1426   1.286       .  A
O1425     Zr1454   2.432       .  S
O1425      C1426   1.288       .  A
C1426      C1611   1.480       .  S
Zr1427     O1428   2.435       .  S
Zr1427     O1429   2.434       .  S
Zr1427     O1433   2.370       .  S
Zr1427     O1434   2.372       .  S
Zr1427     O1457   2.364       .  S
Zr1427     O1459   2.366       .  S
O1428      H1471   0.990       .  S
O1429      H1470   0.990       .  S
O1429      H1474   0.990       .  S
Zr1430     O1432   2.433       .  S
Zr1430     O1458   2.361       .  S
Zr1430     O1460   2.368       .  S
O1431      H1472   0.990       .  S
O1431      H1475   0.990       .  S
O1432      H1465   0.990       .  S
O1433     Zr1453   2.379       .  S
O1434     Zr1454   2.384       .  S
O1434      H1461   0.965       .  S
O1435     Zr1447   2.486       .  S
O1436     Zr1454   2.418   1_554  S
C1437      C1481   1.490       .  S
O1438     Zr1450   2.417       .  S
O1438      C1440   1.284       .  A
O1439      C1440   1.287       .  A
C1440      C1821   1.479       .  S
O1441     Zr1450   2.420       .  S
O1441      C1443   1.284       .  A
O1442      C1443   1.288       .  A
C1443      C1601   1.481       .  S
O1444     Zr1447   2.489       .  S
O1445     Zr1453   2.416   1_554  S
C1446      C1501   1.489       .  S
Zr1447     O1449   2.436   1_554  S
Zr1447     O1459   2.385   1_554  S
Zr1447     O1457   2.386   1_554  S
O1448      H1468   0.990       .  S
O1448      H1473   0.990       .  S
O1449      H1469   0.990       .  S
Zr1450     O1451   2.435       .  S
Zr1450     O1452   2.437       .  S
Zr1450     O1456   2.365       .  S
Zr1450     O1455   2.362       .  S
Zr1450     O1460   2.371       .  S
Zr1450     O1458   2.369       .  S
O1451      H1467   0.990       .  S
O1452      H1466   0.990       .  S
O1452      H1476   0.990       .  S
Zr1453     O1459   2.401       .  S
Zr1454     O1457   2.395       .  S
O1455      H1463   0.966       .  S
O1458      H1462   0.966       .  S
O1459      H1464   0.966       .  S
C1477      C1478   1.405       .  A
C1477      C1482   1.392       .  A
C1477      H1483   1.084       .  S
C1478      C1479   1.409       .  A
C1479      C1480   1.415       .  A
C1479      H1484   1.083       .  S
C1480      C1481   1.410       .  A
C1480      H1485   1.083       .  S
C1481      C1482   1.404       .  A
C1482      H1486   1.084       .  S
C1487      C1488   1.407   1_554  A
C1487      C1492   1.409       .  A
C1487      H1493   1.083       .  S
C1488      C1489   1.402       .  A
C1489      C1490   1.390       .  A
C1489      H1494   1.084       .  S
C1490      C1491   1.402       .  A
C1490      H1495   1.084       .  S
C1491      C1492   1.407   1_556  A
C1492      H1496   1.083       .  S
C1497      C1498   1.404       .  A
C1497      C1502   1.392   1_565  A
C1497      H1503   1.084       .  S
C1499      C1500   1.416   1_565  A
C1499      H1504   1.083       .  S
C1500      H1505   1.083       .  S
C1501      C1502   1.405       .  A
C1502      H1506   1.084       .  S
C1507      C1508   1.403       .  A
C1507      C1512   1.392       .  A
C1507      H1513   1.084       .  S
C1508      C1509   1.407   1_556  A
C1509      C1510   1.409       .  A
C1509      H1514   1.083       .  S
C1510      C1511   1.408   1_554  A
C1510      H1515   1.083       .  S
C1511      C1512   1.402       .  A
C1512      H1516   1.084       .  S
C1517      C1518   1.403       .  A
C1517      C1522   1.390       .  A
C1517      H1523   1.084       .  S
C1519      C1520   1.408       .  A
C1519      H1524   1.083       .  S
C1520      H1525   1.083       .  S
C1521      C1522   1.402       .  A
C1522      H1526   1.084       .  S
C1527      C1528   1.410       .  A
C1527      C1532   1.416   1_545  A
C1527      H1533   1.083       .  S
C1528      C1529   1.405       .  A
C1529      C1530   1.391   1_545  A
C1529      H1534   1.084       .  S
C1530      C1531   1.404       .  A
C1530      H1535   1.084       .  S
C1531      C1532   1.411       .  A
C1532      H1536   1.083       .  S
C1537      C1538   1.404       .  A
C1537      C1542   1.388   1_655  A
C1537      H1543   1.084       .  S
C1538      C1539   1.410       .  A
C1539      C1540   1.414   1_655  A
C1539      H1544   1.083       .  S
C1540      C1541   1.409       .  A
C1540      H1545   1.083       .  S
C1541      C1542   1.404       .  A
C1542      H1546   1.084       .  S
C1547      C1548   1.404       .  A
C1547      C1552   1.393       .  A
C1547      H1553   1.084       .  S
C1549      C1550   1.411       .  A
C1549      H1554   1.083       .  S
C1550      H1555   1.083       .  S
C1551      C1552   1.403       .  A
C1552      H1556   1.084       .  S
C1557      C1558   1.410       .  A
C1557      C1562   1.416   1_655  A
C1557      H1563   1.083       .  S
C1558      C1559   1.404       .  A
C1559      C1560   1.391   1_655  A
C1559      H1564   1.084       .  S
C1560      C1561   1.404       .  A
C1560      H1565   1.084       .  S
C1561      C1562   1.410       .  A
C1562      H1566   1.083       .  S
C1567      C1568   1.410       .  A
C1567      C1572   1.415       .  A
C1567      H1573   1.083       .  S
C1568      C1569   1.404       .  A
C1569      C1570   1.391       .  A
C1569      H1574   1.084       .  S
C1570      C1571   1.405       .  A
C1570      H1575   1.084       .  S
C1571      C1572   1.410       .  A
C1572      H1576   1.083       .  S
C1577      C1578   1.408   1_554  A
C1577      C1582   1.410       .  A
C1577      H1583   1.083       .  S
C1578      C1579   1.403       .  A
C1579      C1580   1.391       .  A
C1579      H1584   1.084       .  S
C1580      C1581   1.403       .  A
C1580      H1585   1.084       .  S
C1581      C1582   1.407   1_556  A
C1582      H1586   1.083       .  S
C1587      C1588   1.402       .  A
C1587      C1592   1.390       .  A
C1587      H1593   1.084       .  S
C1588      C1589   1.407   1_556  A
C1589      C1590   1.409       .  A
C1589      H1594   1.083       .  S
C1590      C1591   1.407   1_554  A
C1590      H1595   1.083       .  S
C1591      C1592   1.403       .  A
C1592      H1596   1.084       .  S
C1597      C1598   1.403       .  A
C1597      C1602   1.392       .  A
C1597      H1603   1.083       .  S
C1598      C1599   1.410       .  A
C1599      C1600   1.402       .  A
C1599      H1604   1.083       .  S
C1600      C1601   1.405       .  A
C1600      H1605   1.083       .  S
C1601      C1602   1.407       .  A
C1602      H1606   1.083       .  S
C1607      C1608   1.404       .  A
C1607      C1612   1.393       .  A
C1607      H1613   1.083       .  S
C1608      C1609   1.408       .  A
C1609      C1610   1.398       .  A
C1609      H1614   1.083       .  S
C1610      C1611   1.405       .  A
C1610      H1615   1.083       .  S
C1611      C1612   1.407       .  A
C1612      H1616   1.083       .  S
C1617      C1618   1.403       .  A
C1617      C1622   1.393       .  A
C1617      H1623   1.083       .  S
C1618      C1619   1.410       .  A
C1619      C1620   1.401       .  A
C1619      H1624   1.083       .  S
C1620      C1621   1.404       .  A
C1620      H1625   1.083       .  S
C1621      C1622   1.408       .  A
C1622      H1626   1.083       .  S
C1627      C1628   1.404       .  A
C1627      C1632   1.393       .  A
C1627      H1633   1.083       .  S
C1628      C1629   1.408       .  A
C1629      C1630   1.401       .  A
C1629      H1634   1.083       .  S
C1630      C1631   1.406       .  A
C1630      H1635   1.083       .  S
C1631      C1632   1.407       .  A
C1632      H1636   1.083       .  S
C1637      C1638   1.401       .  A
C1637      C1642   1.390       .  A
C1637      H1643   1.083       .  S
C1638      C1639   1.410       .  A
C1639      C1640   1.399       .  A
C1639      H1644   1.083       .  S
C1640      C1641   1.403       .  A
C1640      H1645   1.083       .  S
C1641      C1642   1.408       .  A
C1642      H1646   1.083       .  S
C1647      C1648   1.409       .  A
C1647      C1652   1.401       .  A
C1647      H1653   1.083       .  S
C1648      C1649   1.403       .  A
C1649      C1650   1.392       .  A
C1649      H1654   1.083       .  S
C1650      C1651   1.407       .  A
C1650      H1655   1.083       .  S
C1651      C1652   1.406       .  A
C1652      H1656   1.083       .  S
C1657      C1658   1.403       .  A
C1657      C1662   1.392       .  A
C1657      H1663   1.083       .  S
C1658      C1659   1.410       .  A
C1659      C1660   1.400       .  A
C1659      H1664   1.083       .  S
C1660      C1661   1.403       .  A
C1660      H1665   1.083       .  S
C1661      C1662   1.408       .  A
C1662      H1666   1.083       .  S
C1667      C1668   1.408       .  A
C1667      C1672   1.392       .  A
C1667      H1673   1.083       .  S
C1668      C1669   1.405       .  A
C1669      C1670   1.401       .  A
C1669      H1674   1.083       .  S
C1670      C1671   1.408       .  A
C1670      H1675   1.083       .  S
C1671      C1672   1.404       .  A
C1672      H1676   1.083       .  S
C1677      C1678   1.407       .  A
C1677      C1682   1.394       .  A
C1677      H1683   1.083       .  S
C1678      C1679   1.403       .  A
C1679      C1680   1.400       .  A
C1679      H1684   1.083       .  S
C1680      C1681   1.409       .  A
C1680      H1685   1.083       .  S
C1681      C1682   1.404       .  A
C1682      H1686   1.083       .  S
C1687      C1688   1.409       .  A
C1687      C1692   1.400       .  A
C1687      H1693   1.083       .  S
C1688      C1689   1.404       .  A
C1689      C1690   1.393       .  A
C1689      H1694   1.083       .  S
C1690      C1691   1.407       .  A
C1690      H1695   1.083       .  S
C1691      C1692   1.406       .  A
C1692      H1696   1.083       .  S
C1697      C1698   1.403       .  A
C1697      C1702   1.392       .  A
C1697      H1703   1.083       .  S
C1698      C1699   1.410       .  A
C1699      C1700   1.400       .  A
C1699      H1704   1.083       .  S
C1700      C1701   1.403       .  A
C1700      H1705   1.083       .  S
C1701      C1702   1.408       .  A
C1702      H1706   1.083       .  S
C1707      C1708   1.404       .  A
C1707      C1712   1.394       .  A
C1707      H1713   1.083       .  S
C1708      C1709   1.409       .  A
C1709      C1710   1.401       .  A
C1709      H1714   1.083       .  S
C1710      C1711   1.406       .  A
C1710      H1715   1.083       .  S
C1711      C1712   1.407       .  A
C1712      H1716   1.083       .  S
C1717      C1718   1.407       .  A
C1717      C1722   1.393       .  A
C1717      H1723   1.083       .  S
C1718      C1719   1.405       .  A
C1719      C1720   1.400       .  A
C1719      H1724   1.083       .  S
C1720      C1721   1.409       .  A
C1720      H1725   1.083       .  S
C1721      C1722   1.404       .  A
C1722      H1726   1.083       .  S
C1727      C1728   1.405       .  A
C1727      C1732   1.395       .  A
C1727      H1733   1.083       .  S
C1728      C1729   1.406       .  A
C1729      C1730   1.402       .  A
C1729      H1734   1.083       .  S
C1730      C1731   1.409       .  A
C1730      H1735   1.083       .  S
C1731      C1732   1.406       .  A
C1732      H1736   1.083       .  S
C1737      C1738   1.410       .  A
C1737      C1742   1.400       .  A
C1737      H1743   1.083       .  S
C1738      C1739   1.403       .  A
C1739      C1740   1.393       .  A
C1739      H1744   1.083       .  S
C1740      C1741   1.408       .  A
C1740      H1745   1.083       .  S
C1741      C1742   1.402       .  A
C1742      H1746   1.083       .  S
C1747      C1748   1.408       .  A
C1747      C1752   1.399       .  A
C1747      H1753   1.083       .  S
C1748      C1749   1.404       .  A
C1749      C1750   1.394       .  A
C1749      H1754   1.083       .  S
C1750      C1751   1.406       .  A
C1750      H1755   1.083       .  S
C1751      C1752   1.406       .  A
C1752      H1756   1.083       .  S
C1757      C1758   1.409       .  A
C1757      C1762   1.400       .  A
C1757      H1763   1.083       .  S
C1758      C1759   1.402       .  A
C1759      C1760   1.391       .  A
C1759      H1764   1.083       .  S
C1760      C1761   1.408       .  A
C1760      H1765   1.083       .  S
C1761      C1762   1.404       .  A
C1762      H1766   1.083       .  S
C1767      C1768   1.409       .  A
C1767      C1772   1.401       .  A
C1767      H1773   1.083       .  S
C1768      C1769   1.404       .  A
C1769      C1770   1.393       .  A
C1769      H1774   1.083       .  S
C1770      C1771   1.406       .  A
C1770      H1775   1.083       .  S
C1771      C1772   1.406       .  A
C1772      H1776   1.083       .  S
C1777      C1778   1.409       .  A
C1777      C1782   1.399       .  A
C1777      H1783   1.083       .  S
C1778      C1779   1.403       .  A
C1779      C1780   1.391       .  A
C1779      H1784   1.083       .  S
C1780      C1781   1.408       .  A
C1780      H1785   1.083       .  S
C1781      C1782   1.404       .  A
C1782      H1786   1.083       .  S
C1787      C1788   1.404       .  A
C1787      C1792   1.393       .  A
C1787      H1793   1.083       .  S
C1788      C1789   1.408       .  A
C1789      C1790   1.402       .  A
C1789      H1794   1.083       .  S
C1790      C1791   1.407       .  A
C1790      H1795   1.083       .  S
C1791      C1792   1.407       .  A
C1792      H1796   1.083       .  S
C1797      C1798   1.403       .  A
C1797      C1802   1.392       .  A
C1797      H1803   1.083       .  S
C1798      C1799   1.409       .  A
C1799      C1800   1.399       .  A
C1799      H1804   1.083       .  S
C1800      C1801   1.404       .  A
C1800      H1805   1.083       .  S
C1801      C1802   1.408       .  A
C1802      H1806   1.083       .  S
C1807      C1808   1.408       .  A
C1807      C1812   1.398       .  A
C1807      H1813   1.083       .  S
C1808      C1809   1.404       .  A
C1809      C1810   1.393       .  A
C1809      H1814   1.083       .  S
C1810      C1811   1.407       .  A
C1810      H1815   1.083       .  S
C1811      C1812   1.404       .  A
C1812      H1816   1.083       .  S
C1817      C1818   1.402       .  A
C1817      C1822   1.390       .  A
C1817      H1823   1.083       .  S
C1818      C1819   1.410       .  A
C1819      C1820   1.400       .  A
C1819      H1824   1.083       .  S
C1820      C1821   1.404       .  A
C1820      H1825   1.083       .  S
C1821      C1822   1.407       .  A
C1822      H1826   1.083       .  S
C1827      C1828   1.404       .  A
C1827      C1832   1.393       .  A
C1827      H1833   1.083       .  S
C1828      C1829   1.409       .  A
C1829      C1830   1.399       .  A
C1829      H1834   1.083       .  S
C1830      C1831   1.405       .  A
C1830      H1835   1.083       .  S
C1831      C1832   1.406       .  A
C1832      H1836   1.083       .  S
