geometry optimzed in LAMMPS
_audit_creation_date              2020-11-30 
_audit_creation_method            'lammps2cif' 
_symmetry_space_group_name_H-M    'P1' 
_symmetry_Int_Tables_number       1 
_symmetry_cell_setting            triclinic 
loop_ 
_symmetry_equiv_pos_as_xyz 
  x,y,z 
_cell_length_a                    59.59147345 
_cell_length_b                    59.54133234901159 
_cell_length_c                    31.903646105008065 
_cell_angle_alpha                 90.03273164315563 
_cell_angle_beta                  90.0049711608233 
_cell_angle_gamma                 120.09861445187397 
loop_ 
_atom_site_label 
_atom_site_type_symbol 
_atom_site_fract_x 
_atom_site_fract_y 
_atom_site_fract_z 
_atom_site_charge 
O1          O  0.47728402  0.04907934  0.57178591    -0.75400
O2          O  0.48757768  0.02731896  0.61969340    -0.54300
C3          C  0.47959691  0.04301865  0.60970203     0.78300
O4          O  0.42924194  0.95044711  0.42867917    -0.60000
O5          O  0.46101172  0.97406376  0.38117090    -0.53100
C6          C  0.43747637  0.95738592  0.39085731     0.70300
O7          O  0.42892642  0.95074439  0.57084084    -0.74600
O8          O  0.46062272  0.97267424  0.61938485    -0.55100
C9          C  0.43703105  0.95673379  0.60891118     0.76300
O10         O  0.47773147  0.04987425  0.42964323    -0.59700
O11         O  0.48824923  0.02842429  0.38143920    -0.52800
C12         C  0.48008525  0.04399186  0.39160254     0.72900
Zr13       Zr  0.48505170  0.03918345  0.50062460     2.54700
O14         O  0.44578530  0.04218748  0.50029665    -0.80300
O15         O  0.51198339  0.08628627  0.49987265    -0.93700
Zr16       Zr  0.44695513  0.96124205  0.49997818     2.64700
O17         O  0.40454656  0.95796357  0.50083946    -0.98700
O18         O  0.42788891  0.91423863  0.49866332    -0.80700
O19         O  0.46537455  0.00007091  0.54004936    -0.84100
O20         O  0.46554633  0.00032951  0.46082103    -2.18800
O21         O  0.57020676  0.05140326  0.43002189    -0.67500
O22         O  0.53900770  0.02780179  0.38160910    -0.52000
C23         C  0.56247559  0.04439047  0.39197224     0.71300
O24         O  0.52384730  0.95382992  0.57188208    -0.60400
O25         O  0.51186094  0.97421014  0.61981818    -0.52400
C26         C  0.52123027  0.95964315  0.60991649     0.73100
O27         O  0.51970390  0.95075658  0.42927533    -0.71800
O28         O  0.50944681  0.97263378  0.38151044    -0.50500
C29         C  0.51677525  0.95638725  0.39136004     0.74500
O30         O  0.56994648  0.04992770  0.57253093    -0.67100
O31         O  0.53781023  0.02758139  0.62009628    -0.54300
C32         C  0.56153525  0.04353918  0.61042715     0.72900
Zr33       Zr  0.55209545  0.04037714  0.50113211     2.77500
O34         O  0.59497145  0.04481037  0.50250209    -0.97900
O35         O  0.57045646  0.08729234  0.50238188    -0.78700
Zr36       Zr  0.51398619  0.96231872  0.50067259     2.70100
O37         O  0.55281793  0.95861793  0.49782662    -0.79900
O38         O  0.48570447  0.91537788  0.50262449    -0.99000
Zr39       Zr  0.49928015  0.00043297  0.57978035     2.21500
Zr40       Zr  0.49978491  0.00115383  0.42121924     2.11100
O41         O  0.53365152  0.00142632  0.46132088    -2.47700
O42         O  0.53343288  0.00126198  0.54036449    -0.79700
O43         O  0.51910970  0.04073574  0.45975044    -0.71900
O44         O  0.47994077  0.96083366  0.54127128    -2.32900
O45         O  0.51872782  0.04025258  0.54184109    -2.29100
O46         O  0.48041573  0.96147842  0.45936260    -0.73700
H47         H  0.45243056  0.00019366  0.44288283     0.78300
H48         H  0.47271024  0.94598059  0.55974764     0.79400
H49         H  0.54675427  0.00149383  0.44343731     0.81600
H50         H  0.52591719  0.05499884  0.56056987     0.79200
H51         H  0.42775300  0.90926265  0.52830727     0.42300
H52         H  0.48318371  0.90986861  0.47288522     0.41200
H53         H  0.56730410  0.97680943  0.49785633     0.40900
H54         H  0.59510735  0.03426063  0.47860590     0.38900
H55         H  0.57260812  0.09196315  0.53249034     0.42000
H56         H  0.51519675  0.09138670  0.52976969     0.36800
H57         H  0.43164058  0.02421021  0.49493042     0.42900
H58         H  0.40518929  0.96948109  0.47792198     0.39300
H59         H  0.60693222  0.06301629  0.49409570     0.44200
H60         H  0.50021074  0.09244991  0.49019041     0.43000
H61         H  0.39238551  0.94017667  0.49073695     0.43100
H62         H  0.49666520  0.90876302  0.51435442     0.43400
O63         O  0.05052584  0.57081232  0.57363435    -0.75400
O64         O  0.02715142  0.53881145  0.62096638    -0.54300
C65         C  0.04364855  0.56242693  0.61146195     0.78300
O66         O  0.95203794  0.52329932  0.42829984    -0.60000
O67         O  0.97477451  0.51393275  0.38086723    -0.53100
C68         C  0.95855014  0.52136650  0.39051238     0.70300
O69         O  0.95323587  0.52612265  0.57024048    -0.74600
O70         O  0.97343739  0.51448328  0.61911695    -0.55100
C71         C  0.95876057  0.52356879  0.60834713     0.76300
O72         O  0.05562621  0.56998337  0.43137652    -0.59700
O73         O  0.03056799  0.53935527  0.38301800    -0.52800
C74         C  0.04872036  0.56219485  0.39333691     0.72900
Zr75       Zr  0.04094166  0.55289999  0.50213068     2.54700
O76         O  0.04268444  0.59455723  0.49751625    -0.80300
O77         O  0.08792353  0.57297031  0.50695429    -0.93700
Zr78       Zr  0.96351653  0.51791940  0.49977275     2.64700
O79         O  0.96575072  0.55990875  0.49904929    -0.98700
O80         O  0.91637054  0.49624571  0.50031935    -0.80700
O81         O  0.00183250  0.53566341  0.54087108    -0.84100
O82         O  0.00268852  0.53602984  0.46082813    -2.18800
O83         O  0.04771416  0.47656153  0.43129471    -0.67500
O84         O  0.02750365  0.48829637  0.38260982    -0.52000
C85         C  0.04261919  0.47960865  0.39304715     0.71300
O86         O  0.94850496  0.43050513  0.57148214    -0.60400
O87         O  0.97117860  0.46195639  0.62007264    -0.52400
C88         C  0.95497138  0.43840766  0.60959183     0.73100
O89         O  0.94766280  0.43152846  0.42961805    -0.71800
O90         O  0.97162534  0.46289206  0.38167021    -0.50500
C91         C  0.95449257  0.43956598  0.39171776     0.74500
O92         O  0.04688000  0.47730049  0.57375244    -0.67100
O93         O  0.02437707  0.48705620  0.62110002    -0.54300
C94         C  0.04023133  0.47918601  0.61149848     0.72900
Zr95       Zr  0.03634802  0.48381331  0.50220731     2.77500
O96         O  0.03278654  0.44132422  0.50694056    -0.97900
O97         O  0.08353307  0.50653263  0.50164369    -0.78700
Zr98       Zr  0.95877915  0.44907776  0.50071468     2.70100
O99         O  0.95104356  0.40488185  0.49830246    -0.79900
O100        O  0.91244187  0.43358885  0.50293499    -0.99000
Zr101      Zr  0.99916164  0.50064650  0.58047416     2.21500
Zr102      Zr  0.00070639  0.50101539  0.42160213     2.11100
O103        O  0.99788261  0.46594516  0.46160976    -2.47700
O104        O  0.99722535  0.46588187  0.54118414    -0.79700
O105        O  0.03963023  0.51873811  0.46158882    -0.71900
O106        O  0.95993283  0.48305735  0.54112615    -2.32900
O107        O  0.03896697  0.51856028  0.54275204    -2.29100
O108        O  0.96091597  0.48321068  0.45930069    -0.73700
H109        H  0.00376090  0.54945799  0.44254540     0.78300
H110        H  0.94497088  0.47634483  0.55930774     0.79400
H111        H  0.99718096  0.45253451  0.44369169     0.81600
H112        H  0.05360449  0.52525217  0.56162598     0.79200
H113        H  0.91245461  0.51010241  0.50752057     0.42300
H114        H  0.91005818  0.44542082  0.48405511     0.41200
H115        H  0.96654815  0.40643000  0.48415080     0.40900
H116        H  0.02205423  0.43152709  0.48255095     0.38900
H117        H  0.08860421  0.52192457  0.48373580     0.42000
H118        H  0.09130979  0.56975261  0.53608840     0.36800
H119        H  0.02815964  0.59249240  0.51532568     0.42900
H120        H  0.97900847  0.57018543  0.47766412     0.39300
H121        H  0.05038743  0.44455377  0.50026905     0.44200
H122        H  0.09435813  0.59185905  0.50592636     0.43000
H123        H  0.94914295  0.55645992  0.48639393     0.43100
H124        H  0.90439314  0.41681934  0.48777306     0.43400
O125        O  0.51880814  0.57068727  0.57017894    -0.75400
O126        O  0.51103575  0.53925241  0.61823403    -0.54300
C127        C  0.51772682  0.56266649  0.60810968     0.78300
O128        O  0.42919908  0.47742098  0.42699138    -0.60000
O129        O  0.46133958  0.48748201  0.37924680    -0.53100
C130        C  0.43761263  0.47955621  0.38907707     0.70300
O131        O  0.42834018  0.47810673  0.56925858    -0.74600
O132        O  0.46021466  0.48887077  0.61782129    -0.55100
C133        C  0.43648856  0.48071822  0.60738583     0.76300
O134        O  0.51956646  0.57059390  0.42814775    -0.59700
O135        O  0.51110161  0.53901925  0.38004714    -0.52800
C136        C  0.51795976  0.56251093  0.39016798     0.72900
Zr137      Zr  0.51262164  0.55275010  0.49909404     2.54700
O138        O  0.48563974  0.57275975  0.49828716    -0.80300
O139        O  0.55282093  0.59441516  0.49661873    -0.93700
Zr140      Zr  0.44662714  0.48509453  0.49857730     2.64700
O141        O  0.42422537  0.50984179  0.49948798    -0.98700
O142        O  0.40548355  0.44437820  0.49962885    -0.80700
O143        O  0.47915754  0.51925293  0.53967905    -0.84100
O144        O  0.47940880  0.51927540  0.45808966    -2.18800
O145        O  0.57107908  0.52336832  0.42983028    -0.67500
O146        O  0.53933333  0.51262512  0.38109111    -0.52000
C147        C  0.56302795  0.52099691  0.39170958     0.71300
O148        O  0.48079496  0.43033181  0.57081090    -0.60400
O149        O  0.48935484  0.46191339  0.61898188    -0.52400
C150        C  0.48257918  0.43844767  0.60881545     0.73100
O151        O  0.48019093  0.43031656  0.42877778    -0.71800
O152        O  0.49064563  0.46206051  0.38016803    -0.50500
C153        C  0.48304650  0.43849223  0.39069287     0.74500
O154        O  0.57072385  0.52253982  0.57122802    -0.67100
O155        O  0.53857190  0.51233132  0.61894872    -0.54300
C156        C  0.56233063  0.52019080  0.60913337     0.72900
Zr157      Zr  0.55268683  0.51524018  0.50035571     2.77500
O158        O  0.57326954  0.48875579  0.50152123    -0.97900
O159        O  0.59445496  0.55524944  0.50162274    -0.78700
Zr160      Zr  0.48669732  0.44785033  0.49978142     2.70100
O161        O  0.51327479  0.42741510  0.49910951    -0.79900
O162        O  0.44697585  0.40577733  0.50173779    -0.99000
Zr163      Zr  0.49949743  0.50035135  0.57903552     2.21500
Zr164      Zr  0.50008997  0.50027970  0.41989205     2.11100
O165        O  0.52022385  0.48122247  0.45931523    -2.47700
O166        O  0.51991852  0.48117954  0.54091638    -0.79700
O167        O  0.53331666  0.53444405  0.45980147    -0.71900
O168        O  0.46608143  0.46607652  0.53916139    -2.32900
O169        O  0.53302287  0.53459369  0.53942045    -2.29100
O170        O  0.46633768  0.46589801  0.45895129    -0.73700
H171        H  0.47181649  0.52641281  0.43941824     0.78300
H172        H  0.45315110  0.45287122  0.55709759     0.79400
H173        H  0.52793423  0.47402902  0.44100739     0.81600
H174        H  0.54594318  0.54784080  0.55733717     0.79200
H175        H  0.41035808  0.43080109  0.49711927     0.42300
H176        H  0.43551867  0.40708924  0.48061096     0.41200
H177        H  0.50093931  0.40890087  0.49302082     0.40900
H178        H  0.56324224  0.47450026  0.48141918     0.38900
H179        H  0.59110855  0.56824277  0.48806607     0.42000
H180        H  0.56131735  0.59605234  0.52401257     0.36800
H181        H  0.49810065  0.59163685  0.49671542     0.42900
H182        H  0.42857849  0.51910047  0.47231752     0.39300
H183        H  0.59024573  0.49961091  0.48770018     0.44200
H184        H  0.54729113  0.60755585  0.49749374     0.43000
H185        H  0.40562953  0.49655462  0.49701619     0.43100
H186        H  0.45175245  0.39349891  0.48933964     0.43400
O187        O  0.79025912  0.50370773  0.00039588    -0.75400
O188        O  0.83267913  0.53570498  0.00028003    -0.54300
C189        C  0.81472380  0.51165676  0.00042141     0.78300
O190        O  0.74848377  0.57359621  0.88383212    -0.60000
O191        O  0.72200095  0.57299634  0.93589616    -0.53100
C192        C  0.72763686  0.57274727  0.89696993     0.70300
O193        O  0.82327474  0.57227104  0.88327559    -0.74600
O194        O  0.85049934  0.57365023  0.93466045    -0.55100
C195        C  0.84372048  0.57214037  0.89597776     0.76300
O196        O  0.71361489  0.50187986  0.00054176    -0.59700
O197        O  0.70264843  0.53343451  0.00190943    -0.52800
C198        C  0.69684775  0.50951157  0.00128693     0.72900
Zr199      Zr  0.76060457  0.52061663  0.00074755     2.54700
O200        O  0.74552616  0.48846783  0.94481878    -0.80300
O201        O  0.74363800  0.48771878  0.05549427    -0.93700
Zr202      Zr  0.78690931  0.57478393  0.91278810     2.64700
O203        O  0.77045497  0.54089286  0.85941046    -0.98700
O204        O  0.80464706  0.60965107  0.86132112    -0.80700
O205        O  0.79551734  0.54765302  0.95600653    -0.84100
O206        O  0.75153272  0.54674458  0.95611254    -2.18800
O207        O  0.74838067  0.57110212  0.11791902    -0.67500
O208        O  0.72227464  0.57222474  0.06672477    -0.52000
C209        C  0.72770302  0.57081446  0.10534012     0.71300
O210        O  0.86131859  0.64880151  0.00174594    -0.60400
O211        O  0.87124132  0.61643471  0.00002111    -0.52400
C212        C  0.87769363  0.64055432  0.00100793     0.73100
O213        O  0.78362457  0.64675505  0.00174550    -0.71800
O214        O  0.74172926  0.61347461  0.00116888    -0.50500
C215        C  0.75885784  0.63776044  0.00171545     0.74500
O216        O  0.82567993  0.57439220  0.11688229    -0.67100
O217        O  0.85167144  0.57420950  0.06462800    -0.54300
C218        C  0.84578773  0.57377607  0.10354826     0.72900
Zr219      Zr  0.78811542  0.57549691  0.08840959     2.77500
O220        O  0.80550700  0.61199625  0.13688680    -0.97900
O221        O  0.77440915  0.54561530  0.14747596    -0.78700
Zr222      Zr  0.81375572  0.62964904  0.99998132     2.70100
O223        O  0.83005861  0.66479828  0.05096270    -0.79900
O224        O  0.82703656  0.65917075  0.94052310    -0.99000
Zr225      Zr  0.83076245  0.57554648  0.00015988     2.21500
Zr226      Zr  0.74363982  0.57394272  0.00111679     2.11100
O227        O  0.77899386  0.60234866  0.04526465    -2.47700
O228        O  0.82329513  0.60343121  0.04462104    -0.79700
O229        O  0.75220478  0.54711466  0.04587422    -0.71900
O230        O  0.82265158  0.60293848  0.95555800    -2.32900
O231        O  0.79579279  0.54770716  0.04515506    -2.29100
O232        O  0.77833028  0.60201849  0.95608760    -0.73700
H233        H  0.73656109  0.53583050  0.93904270     0.78300
H234        H  0.83751305  0.61358361  0.93811346     0.79400
H235        H  0.77429932  0.61264599  0.06261405     0.81600
H236        H  0.80020188  0.53710106  0.06227132     0.79200
H237        H  0.79809020  0.60080275  0.83404854     0.42300
H238        H  0.81199780  0.65122835  0.92121414     0.41200
H239        H  0.81524816  0.66022337  0.06998737     0.40900
H240        H  0.79369094  0.61911054  0.13454441     0.38900
H241        H  0.76964594  0.52860574  0.13483863     0.42000
H242        H  0.75911214  0.49033626  0.07116269     0.36800
H243        H  0.76083561  0.49411304  0.92646807     0.42900
H244        H  0.75132529  0.53242444  0.86107589     0.39300
H245        H  0.80186203  0.60386328  0.16499146     0.44200
H246        H  0.73747879  0.47111274  0.04037710     0.43000
H247        H  0.77499834  0.55032831  0.83238773     0.43100
H248        H  0.82724088  0.67483830  0.95146285     0.43400
O249        O  0.71452061  0.21175646  0.00156159    -0.75400
O250        O  0.70356401  0.16921138  0.00447997    -0.54300
C251        C  0.69775638  0.18732523  0.00294822     0.78300
O252        O  0.82501741  0.25043899  0.88386430    -0.60000
O253        O  0.85114503  0.27747096  0.93538566    -0.53100
C254        C  0.84508190  0.27147198  0.89658072     0.70300
O255        O  0.74708173  0.17670016  0.88667448    -0.74600
O256        O  0.72132762  0.14990784  0.93864351    -0.55100
C257        C  0.72625900  0.15659594  0.89990519     0.76300
O258        O  0.79099140  0.28711664  0.00679434    -0.59700
O259        O  0.83336595  0.29792362  0.00197083    -0.52800
C260        C  0.81540727  0.30385525  0.00502754     0.72900
Zr261      Zr  0.76137466  0.24041823  0.00329222     2.54700
O262        O  0.74807659  0.25878052  0.94696241    -0.80300
O263        O  0.74375643  0.25698516  0.05600549    -0.93700
Zr264      Zr  0.78720662  0.21290124  0.91418050     2.64700
O265        O  0.77044886  0.23106460  0.86280157    -0.98700
O266        O  0.80189545  0.19454042  0.85985341    -0.80700
O267        O  0.75219267  0.20508599  0.95861252    -0.84100
O268        O  0.79589682  0.24867653  0.95761336    -2.18800
O269        O  0.82464043  0.25164431  0.11846248    -0.67500
O270        O  0.85066420  0.27836729  0.06664745    -0.52000
C271        C  0.84426571  0.27285444  0.10543278     0.71300
O272        O  0.78647486  0.13819573  0.00453933    -0.60400
O273        O  0.74442583  0.12893072  0.00229436    -0.52400
C274        C  0.76181824  0.12215434  0.00394787     0.73100
O275        O  0.86236485  0.21386047  0.99829659    -0.71800
O276        O  0.87192747  0.25604365  0.00053717    -0.50500
C277        C  0.87851205  0.23851095  0.99911466     0.74500
O278        O  0.75088289  0.17495083  0.11988630    -0.67100
O279        O  0.72400745  0.14888233  0.06826444    -0.54300
C280        C  0.73005621  0.15471393  0.10707846     0.72900
Zr281      Zr  0.78875018  0.21230108  0.08951070     2.77500
O282        O  0.80705546  0.19492804  0.13943143    -0.97900
O283        O  0.77163728  0.22819574  0.14394263    -0.78700
Zr284      Zr  0.81515265  0.18531825  0.00022957     2.70100
O285        O  0.83419269  0.16985239  0.05213111    -0.79900
O286        O  0.82779872  0.16700882  0.94286972    -0.99000
Zr287      Zr  0.74466178  0.16976964  0.00277842     2.21500
Zr288      Zr  0.83137818  0.25610014  0.00123740     2.11100
O289        O  0.82417282  0.22065587  0.04543141    -2.47700
O290        O  0.78021879  0.17671910  0.04590720    -0.79700
O291        O  0.79662498  0.24816413  0.04693907    -0.71900
O292        O  0.77935561  0.17706548  0.95686748    -2.32900
O293        O  0.75297527  0.20508868  0.04765098    -2.29100
O294        O  0.82338283  0.22084124  0.95614215    -0.73700
H295        H  0.80014163  0.26374579  0.94071208     0.78300
H296        H  0.77452173  0.16198572  0.93957793     0.79400
H297        H  0.83926050  0.22507592  0.06240500     0.81600
H298        H  0.73820633  0.20090223  0.06526354     0.79200
H299        H  0.79938085  0.17812290  0.87191014     0.42300
H300        H  0.83437079  0.18056085  0.92089918     0.41200
H301        H  0.82770089  0.17226322  0.07934194     0.40900
H302        H  0.80193883  0.19831166  0.16720909     0.38900
H303        H  0.76952800  0.24186178  0.12993067     0.42000
H304        H  0.73336055  0.24207717  0.07479465     0.36800
H305        H  0.73735186  0.24390537  0.92827355     0.42900
H306        H  0.77753937  0.24938751  0.87133969     0.39300
H307        H  0.79654517  0.17585091  0.13597522     0.44200
H308        H  0.73077086  0.25959899  0.04074206     0.43000
H309        H  0.77970890  0.23201308  0.83650651     0.43100
H310        H  0.84343446  0.16696137  0.95325327     0.43400
O311        O  0.28607030  0.78958865  0.00234633    -0.75400
O312        O  0.29681376  0.83205618  0.99926255    -0.54300
C313        C  0.30272516  0.81403481  0.00124545     0.78300
O314        O  0.17366499  0.74876596  0.88486732    -0.60000
O315        O  0.14777439  0.72266536  0.93734599    -0.53100
C316        C  0.15352941  0.72809861  0.89841742     0.70300
O317        O  0.25092126  0.82374146  0.88301417    -0.74600
O318        O  0.27702764  0.85139954  0.93394952    -0.55100
C319        C  0.27154245  0.84435251  0.89544831     0.76300
O320        O  0.21015851  0.71409632  0.00511957    -0.59700
O321        O  0.16772898  0.70351697  0.00275266    -0.52800
C322        C  0.18566308  0.69750476  0.00477445     0.72900
Zr323      Zr  0.23926324  0.76092172  0.00113670     2.54700
O324        O  0.25577898  0.74499944  0.94568892    -0.80300
O325        O  0.25569372  0.74452497  0.05595758    -0.93700
Zr326      Zr  0.21186286  0.78715791  0.91232233     2.64700
O327        O  0.22802182  0.76919455  0.85959943    -0.98700
O328        O  0.19552832  0.80474755  0.85929628    -0.80700
O329        O  0.24770733  0.79560238  0.95535109    -0.84100
O330        O  0.20396201  0.75196708  0.95660908    -2.18800
O331        O  0.17839179  0.74993123  0.11785437    -0.67500
O332        O  0.15088417  0.72307803  0.06755386    -0.52000
C333        C  0.15842741  0.72866846  0.10589275     0.71300
O334        O  0.21405597  0.86265706  0.00112309    -0.60400
O335        O  0.25620402  0.87208443  0.00059930    -0.52400
C336        C  0.23873875  0.87873651  0.00139589     0.73100
O337        O  0.13748269  0.78652663  0.99742563    -0.71800
O338        O  0.12796837  0.74441002  0.00198299    -0.50500
C339        C  0.12129641  0.76188000  0.99969082     0.74500
O340        O  0.25150660  0.82664995  0.11550654    -0.67100
O341        O  0.27812033  0.85222896  0.06333743    -0.54300
C342        C  0.27255799  0.84641263  0.10224487     0.72900
Zr343      Zr  0.21245651  0.78978363  0.08718307     2.77500
O344        O  0.19283829  0.80807024  0.13246261    -0.97900
O345        O  0.22808801  0.77566414  0.14629094    -0.78700
Zr346      Zr  0.18483397  0.81547663  0.99794298     2.70100
O347        O  0.16544552  0.83202384  0.04729759    -0.79900
O348        O  0.17234964  0.83164251  0.93740246    -0.99000
Zr349      Zr  0.25560637  0.83126162  0.99902274     2.21500
Zr350      Zr  0.16895520  0.74491548  0.00142277     2.11100
O351        O  0.17642504  0.78083436  0.04440264    -2.47700
O352        O  0.22042921  0.82478640  0.04274857    -0.79700
O353        O  0.20448176  0.75358049  0.04558875    -0.71900
O354        O  0.22029433  0.82345657  0.95414082    -2.32900
O355        O  0.24782570  0.79653939  0.04466664    -2.29100
O356        O  0.17616410  0.77938007  0.95521179    -0.73700
H357        H  0.19956709  0.73673164  0.94000659     0.78300
H358        H  0.22481353  0.83832414  0.93647544     0.79400
H359        H  0.16154149  0.77655355  0.06183812     0.81600
H360        H  0.26274028  0.80083402  0.06200923     0.79200
H361        H  0.20282433  0.80276863  0.83258618     0.42300
H362        H  0.16179496  0.81607857  0.91991596     0.41200
H363        H  0.16607944  0.82447264  0.07460030     0.40900
H364        H  0.19742697  0.80551172  0.16119069     0.38900
H365        H  0.23060330  0.76164711  0.13468994     0.42000
H366        H  0.26657152  0.75976006  0.07390175     0.36800
H367        H  0.26093663  0.73358725  0.96020537     0.42900
H368        H  0.22038140  0.75065953  0.86719386     0.39300
H369        H  0.20331285  0.82703842  0.12777612     0.44200
H370        H  0.26820744  0.74082546  0.04155535     0.43000
H371        H  0.21901361  0.76902729  0.83342394     0.43100
H372        H  0.15975594  0.83635415  0.94858260     0.43400
O373        O  0.57257337  0.82502435  0.88231292    -0.75400
O374        O  0.57441399  0.85217384  0.93434661    -0.54300
C375        C  0.57260962  0.84550935  0.89555194     0.78300
O376        O  0.50197750  0.71486042  0.99663811    -0.60000
O377        O  0.53344891  0.70382447  0.99873693    -0.53100
C378        C  0.50954193  0.69806893  0.99757815     0.70300
O379        O  0.50306896  0.79069474  0.99617006    -0.74600
O380        O  0.53492140  0.83314571  0.99818778    -0.55100
C381        C  0.51091066  0.81512942  0.99686179     0.76300
O382        O  0.57489879  0.75047869  0.88225126    -0.59700
O383        O  0.57279780  0.72317775  0.93415960    -0.52800
C384        C  0.57310592  0.72913730  0.89527426     0.72900
Zr385      Zr  0.57648823  0.78921825  0.91153180     2.54700
O386        O  0.54569682  0.77221829  0.85376833    -0.80300
O387        O  0.61369761  0.80929882  0.86469064    -0.93700
Zr388      Zr  0.52061287  0.76168355  0.99693003     2.64700
O389        O  0.48915388  0.74674909  0.93991437    -0.98700
O390        O  0.48668249  0.74523262  0.04995110    -0.80700
O391        O  0.54829785  0.79709129  0.95355355    -0.84100
O392        O  0.54773718  0.75339791  0.95346176    -2.18800
O393        O  0.64752386  0.78616508  0.00161831    -0.67500
O394        O  0.61431043  0.74417110  0.99989820    -0.52000
C395        C  0.63856909  0.76141781  0.00073673     0.71300
O396        O  0.57187758  0.82455157  0.11692823    -0.60400
O397        O  0.57281315  0.85141057  0.06524411    -0.52400
C398        C  0.57132064  0.84474982  0.10401747     0.73100
O399        O  0.57116975  0.74892727  0.11616159    -0.71800
O400        O  0.57187575  0.72284379  0.06454016    -0.50500
C401        C  0.57074655  0.72823284  0.10329826     0.74500
O402        O  0.64800806  0.86281636  0.00399460    -0.67100
O403        O  0.61542550  0.87238537  0.00210722    -0.54300
C404        C  0.63952076  0.87898131  0.00373968     0.72900
Zr405      Zr  0.62958816  0.81545561  0.00118991     2.77500
O406        O  0.66228795  0.83093824  0.05625783    -0.97900
O407        O  0.66172535  0.83092912  0.94522329    -0.78700
Zr408      Zr  0.57379354  0.78791521  0.08700420     2.70100
O409        O  0.60762506  0.80366422  0.14019080    -0.79900
O410        O  0.53990238  0.77226155  0.14007900    -0.99000
Zr411      Zr  0.57506441  0.83171011  0.99969123     2.21500
Zr412      Zr  0.57411361  0.74490695  0.99934903     2.11100
O413        O  0.60170277  0.77989182  0.04472826    -2.47700
O414        O  0.60230628  0.82390984  0.04499270    -0.79700
O415        O  0.60298061  0.78027354  0.95588151    -0.71900
O416        O  0.54677248  0.79616198  0.04293563    -2.32900
O417        O  0.60346071  0.82456967  0.95591406    -2.29100
O418        O  0.54624789  0.75255860  0.04299423    -0.73700
H419        H  0.53711419  0.73858809  0.93586495     0.78300
H420        H  0.53583672  0.80028989  0.05971576     0.79400
H421        H  0.61185036  0.77515984  0.06236959     0.81600
H422        H  0.61423713  0.83971890  0.93908889     0.79200
H423        H  0.49480756  0.75658094  0.07459221     0.42300
H424        H  0.53010827  0.75315889  0.13666651     0.41200
H425        H  0.62206466  0.81975405  0.12813304     0.40900
H426        H  0.65683699  0.81581709  0.07498601     0.38900
H427        H  0.66187654  0.84646421  0.93382425     0.42000
H428        H  0.60681287  0.80084887  0.83725033     0.36800
H429        H  0.52988843  0.77161678  0.86486591     0.42900
H430        H  0.49299303  0.76271008  0.92447226     0.39300
H431        H  0.67812274  0.83319374  0.04226862     0.44200
H432        H  0.62496350  0.80245442  0.87404368     0.43000
H433        H  0.49467003  0.73739438  0.92063638     0.43100
H434        H  0.54923324  0.77521361  0.16702107     0.43400
O435        O  0.20931777  0.49715099  0.99670387    -0.75400
O436        O  0.16699131  0.46512015  0.99919562    -0.54300
C437        C  0.18485168  0.48919249  0.99749032     0.78300
O438        O  0.24825327  0.42406466  0.88156776    -0.60000
O439        O  0.27617069  0.42697071  0.93290909    -0.53100
C440        C  0.26968765  0.42605070  0.89413102     0.70300
O441        O  0.17477650  0.42779151  0.88361644    -0.74600
O442        O  0.14842682  0.42720210  0.93585493    -0.55100
C443        C  0.15478302  0.42855205  0.89705132     0.76300
O444        O  0.28519068  0.49785563  0.00173708    -0.59700
O445        O  0.29616675  0.46633243  0.99982329    -0.52800
C446        C  0.30192750  0.49022617  0.00129742     0.72900
Zr447      Zr  0.23846012  0.47958811  0.99878820     2.54700
O448        O  0.25558878  0.51140181  0.94244202    -0.80300
O449        O  0.25387326  0.51407142  0.05101084    -0.93700
Zr450      Zr  0.21089605  0.42424939  0.91180203     2.64700
O451        O  0.22727908  0.45590389  0.85514218    -0.98700
O452        O  0.19086502  0.38779050  0.86328061    -0.80700
O453        O  0.20331532  0.45232158  0.95461098    -0.83200
O454        O  0.24680949  0.45285577  0.95402516    -2.18800
O455        O  0.25090062  0.42775026  0.11651400    -0.67500
O456        O  0.27690543  0.42751060  0.06429235    -0.52000
C457        C  0.27160256  0.42835377  0.10321656     0.71300
O458        O  0.13757065  0.35157455  0.99942563    -0.60400
O459        O  0.12821801  0.38436217  0.00042113    -0.52400
C460        C  0.12151448  0.36018770  0.99988402     0.73100
O461        O  0.21494058  0.35312575  0.99714637    -0.71800
O462        O  0.25691504  0.38632723  0.99644690    -0.50500
C463        C  0.23968471  0.36207529  0.99586575     0.74500
O464        O  0.17355072  0.42434596  0.11694348    -0.67100
O465        O  0.14845563  0.42651459  0.06494428    -0.54300
C466        C  0.15388183  0.42582080  0.10375421     0.72900
Zr467      Zr  0.21193812  0.42532827  0.08740627     2.77500
O468        O  0.19653013  0.39126353  0.14011557    -0.97900
O469        O  0.22834780  0.45937102  0.14046532    -0.78700
Zr470      Zr  0.18494643  0.37032804  0.00020366     2.70100
O471        O  0.17123967  0.33974331  0.05824878    -0.79900
O472        O  0.16781424  0.33626185  0.94719687    -0.99000
Zr473      Zr  0.16871737  0.42507067  0.00011519     2.21500
Zr474      Zr  0.25514887  0.42590231  0.99892402     2.11100
O475        O  0.22034332  0.39790250  0.04416860    -2.47700
O476        O  0.17625697  0.39728388  0.04449078    -0.79700
O477        O  0.24728118  0.45324143  0.04366550    -0.71900
O478        O  0.17579503  0.39685559  0.95576975    -2.32900
O479        O  0.20388898  0.45299886  0.04445120    -2.29100
O480        O  0.21984946  0.39738365  0.95513925    -0.73700
H481        H  0.26164735  0.46359991  0.93659881     0.78300
H482        H  0.16072784  0.38622548  0.93865661     0.79400
H483        H  0.22511763  0.38757823  0.06132193     0.81600
H484        H  0.19954221  0.46366908  0.06156877     0.79200
H485        H  0.19911987  0.37732128  0.86972750     0.42300
H486        H  0.18313851  0.33899740  0.93093324     0.41200
H487        H  0.16042322  0.34424596  0.07595839     0.40900
H488        H  0.19451901  0.39942893  0.16580551     0.38900
H489        H  0.21683791  0.46688245  0.13905114     0.42000
H490        H  0.26684984  0.51219601  0.06768496     0.36800
H491        H  0.24053729  0.50663816  0.92387539     0.42900
H492        H  0.24570549  0.46790989  0.86223567     0.39300
H493        H  0.17855434  0.37867438  0.13148376     0.44200
H494        H  0.23907387  0.50873046  0.07038837     0.43000
H495        H  0.22783906  0.44615351  0.83039218     0.43100
H496        H  0.16238317  0.32005051  0.96308265     0.43400
O497        O  0.43063543  0.17786860  0.88441521    -0.75400
O498        O  0.42751546  0.14964887  0.93542315    -0.54300
C499        C  0.43028798  0.15716167  0.89703066     0.78300
O500        O  0.49665291  0.28587627  0.00773285    -0.60000
O501        O  0.46505971  0.29670178  0.00405598    -0.53100
C502        C  0.48891155  0.30255312  0.00712817     0.70300
O503        O  0.49645360  0.21036906  0.00427072    -0.74600
O504        O  0.46479752  0.16781588  0.00257684    -0.55100
C505        C  0.48878269  0.18595179  0.00372528     0.76300
O506        O  0.42680144  0.25136214  0.88368777    -0.59700
O507        O  0.42714475  0.27792814  0.93543408    -0.52800
C508        C  0.42764991  0.27228031  0.89654386     0.72900
Zr509      Zr  0.42565558  0.21302319  0.91292057     2.54700
O510        O  0.45745778  0.23062120  0.85666830    -0.80300
O511        O  0.38969624  0.19298787  0.86355106    -0.93700
Zr512      Zr  0.47845139  0.23906844  0.00326214     2.64700
O513        O  0.51020967  0.25413064  0.94679048    -0.98700
O514        O  0.51175831  0.25603566  0.05732868    -0.80700
O515        O  0.45255887  0.20454788  0.95711047    -0.84100
O516        O  0.45294990  0.24824104  0.95728017    -2.18800
O517        O  0.35184074  0.21466152  0.99420642    -0.67500
O518        O  0.38485343  0.25659990  0.99952916    -0.52000
C519        C  0.36069187  0.23940331  0.99629680     0.71300
O520        O  0.42016012  0.17172800  0.11759565    -0.60400
O521        O  0.42423984  0.14779381  0.06549534    -0.52400
C522        C  0.42244454  0.15251675  0.10435582     0.73100
O523        O  0.42562542  0.24984923  0.11769375    -0.71800
O524        O  0.42690581  0.27713284  0.06646562    -0.50500
C525        C  0.42738808  0.27121697  0.10513903     0.74500
O526        O  0.35126661  0.13774725  0.99878583    -0.67100
O527        O  0.38393207  0.12821364  0.99779170    -0.54300
C528        C  0.35980891  0.12163639  0.99815107     0.72900
Zr529      Zr  0.36955572  0.18505904  0.99702042     2.77500
O530        O  0.33505561  0.16803254  0.04914308    -0.97900
O531        O  0.34036819  0.16998897  0.93694284    -0.78700
Zr532      Zr  0.42183273  0.21040529  0.08810286     2.70100
O533        O  0.38590801  0.19440870  0.13751719    -0.79900
O534        O  0.45425408  0.22358298  0.14330573    -0.99000
Zr535      Zr  0.42441435  0.16891820  0.00036236     2.21500
Zr536      Zr  0.42479156  0.25556841  0.00076839     2.11100
O537        O  0.39565820  0.21970513  0.04350226    -2.47700
O538        O  0.39531954  0.17560960  0.04274122    -0.79700
O539        O  0.39759871  0.22109617  0.95460922    -0.71900
O540        O  0.45083291  0.20352287  0.04667153    -2.32900
O541        O  0.39744721  0.17688047  0.95453009    -2.29100
O542        O  0.45070705  0.24658483  0.04674270    -0.73700
H543        H  0.46404307  0.26337634  0.94075595     0.78300
H544        H  0.46110805  0.19906092  0.06452523     0.79400
H545        H  0.38492467  0.22412404  0.06026804     0.81600
H546        H  0.38736040  0.16210342  0.93665682     0.79200
H547        H  0.50426808  0.24336087  0.08054322     0.42300
H548        H  0.46605030  0.24239404  0.13874266     0.41200
H549        H  0.39336226  0.20525302  0.16287743     0.40900
H550        H  0.34208870  0.18053852  0.07267849     0.38900
H551        H  0.34042151  0.15427464  0.92692711     0.42000
H552        H  0.39793321  0.19860823  0.83566147     0.36800
H553        H  0.47389213  0.23405872  0.86998547     0.42900
H554        H  0.50998111  0.26933536  0.93475758     0.39300
H555        H  0.32125242  0.17062324  0.03690654     0.44200
H556        H  0.38016688  0.20248531  0.86754100     0.43000
H557        H  0.52716586  0.26153763  0.96122488     0.43100
H558        H  0.44481046  0.22254545  0.16942539     0.43400
C559        C  0.24929651  0.34337020  0.99354143    -0.03500
C560        C  0.27524426  0.35207673  0.98224049    -0.09200
C561        C  0.28472119  0.33486117  0.98076149    -0.16900
C562        C  0.26855455  0.30864193  0.99064234     0.25200
C563        C  0.24266224  0.29967471  0.00174434    -0.18600
C564        C  0.23304624  0.31689501  0.00301982    -0.07500
C565        C  0.27912424  0.29147194  0.99040383    -0.13900
C566        C  0.29071020  0.27963190  0.99069103    -0.13700
C567        C  0.30774444  0.26892901  0.99211499     0.25100
C568        C  0.29853164  0.24251162  0.98458659    -0.19100
C569        C  0.31557363  0.23267068  0.98613845    -0.07500
C570        C  0.34208424  0.24919590  0.99507352    -0.03600
C571        C  0.35099638  0.27569038  0.00262821    -0.08900
C572        C  0.33400031  0.28539346  0.00117157    -0.16600
H573        H  0.28830598  0.37225401  0.97447582     0.11600
H574        H  0.30479388  0.34208162  0.97220442     0.10900
H575        H  0.22997077  0.27945018  0.00969271     0.10800
H576        H  0.21304116  0.30957580  0.01200606     0.11300
H577        H  0.27823420  0.22954935  0.97749795     0.11400
H578        H  0.30804622  0.21222667  0.98008999     0.11400
H579        H  0.37118697  0.28905905  0.00978964     0.11500
H580        H  0.34139735  0.30584835  0.00710490     0.10300
C581        C  0.32965251  0.51064796  0.00215433    -0.03500
C582        C  0.34949910  0.50447110  0.99824921    -0.09200
C583        C  0.37558620  0.52418708  0.99791075    -0.16900
C584        C  0.38201988  0.55018012  0.00161240     0.25200
C585        C  0.36243064  0.55639823  0.00583475    -0.18600
C586        C  0.33650073  0.53686913  0.00612611    -0.07500
C587        C  0.40848010  0.57100804  0.00050214    -0.13900
C588        C  0.42861148  0.59136386  0.99960364    -0.13700
C589        C  0.44934775  0.61789962  0.99864528     0.25100
C590        C  0.44311874  0.63761347  0.99838654    -0.19100
C591        C  0.46270496  0.66356018  0.99776480    -0.07500
C592        C  0.48899307  0.67030999  0.99748921    -0.03600
C593        C  0.49512514  0.65032805  0.99752290    -0.08900
C594        C  0.47536578  0.62423978  0.99810384    -0.16600
H595        H  0.34488896  0.48449543  0.99505871     0.11600
H596        H  0.39064567  0.51918970  0.99453351     0.10900
H597        H  0.36721528  0.57646428  0.00866009     0.10800
H598        H  0.32183308  0.54241752  0.00926281     0.11300
H599        H  0.42303369  0.63291676  0.99878200     0.11400
H600        H  0.45715589  0.67831637  0.99772811     0.11400
H601        H  0.51512618  0.65482537  0.99723242     0.11500
H602        H  0.48036593  0.60908050  0.99825325     0.10300
C603        C  0.24795324  0.90698042  0.00241603    -0.03500
C604        C  0.27436654  0.92490123  0.00956317    -0.09200
C605        C  0.28343952  0.95152888  0.00957417    -0.16900
C606        C  0.26637938  0.96080919  0.00244210     0.25200
C607        C  0.24002898  0.94323529  0.99539287    -0.18600
C608        C  0.23083209  0.91645238  0.99548957    -0.07500
C609        C  0.27649564  0.98844434  0.00184516    -0.13900
C610        C  0.28820522  0.01186872  0.00123134    -0.13700
C611        C  0.30556757  0.03953429  0.99968384     0.25100
C612        C  0.29767080  0.05692044  0.01306032    -0.19100
C613        C  0.31511157  0.08374389  0.01194113    -0.07500
C614        C  0.34073014  0.09341581  0.99786594    -0.03600
C615        C  0.34835484  0.07571741  0.98438011    -0.08900
C616        C  0.33090523  0.04904620  0.98523921    -0.16600
H617        H  0.28812524  0.91839246  0.01513928     0.11600
H618        H  0.30387429  0.96493538  0.01497747     0.10900
H619        H  0.22665020  0.95020554  0.98964639     0.10800
H620        H  0.21043051  0.90321651  0.98966326     0.11300
H621        H  0.27813688  0.04976629  0.02453447     0.11400
H622        H  0.30871994  0.09685908  0.02278561     0.11400
H623        H  0.36785707  0.08247687  0.97309875     0.11500
H624        H  0.33725563  0.03579540  0.97485258     0.10300
C625        C  0.17796624  0.66963148  0.00639720    -0.03500
C626        C  0.15268256  0.65000636  0.99571853    -0.09200
C627        C  0.14622082  0.62387219  0.99523484    -0.16900
C628        C  0.16486385  0.61706476  0.00576623     0.25200
C629        C  0.18984916  0.63643003  0.01719350    -0.18600
C630        C  0.19637410  0.66244986  0.01747741    -0.07500
C631        C  0.15924878  0.59054587  0.00327427    -0.13900
C632        C  0.15890528  0.57012616  0.00096379    -0.13700
C633        C  0.16438437  0.54915351  0.99835973     0.25100
C634        C  0.19018746  0.55536040  0.99395026    -0.19100
C635        C  0.19659419  0.53583794  0.99314908    -0.07500
C636        C  0.17726813  0.50952216  0.99673014    -0.03600
C637        C  0.15118559  0.50330621  0.00035735    -0.08900
C638        C  0.14479354  0.52304970  0.00122473    -0.16600
H639        H  0.13809748  0.65487930  0.98684648     0.11600
H640        H  0.12685225  0.60906571  0.98610936     0.10900
H641        H  0.20447531  0.63144069  0.02530963     0.10800
H642        H  0.21596199  0.67696976  0.02609526     0.11300
H643        H  0.20551581  0.57545164  0.99162194     0.11400
H644        H  0.21685295  0.54150325  0.99010189     0.11400
H645        H  0.13581095  0.48328847  0.00307805     0.11500
H646        H  0.12470613  0.51798394  0.00458702     0.10300
C647        C  0.33050777  0.82151660  0.00227336    -0.03500
C648        C  0.35024279  0.84711116  0.99365282    -0.09200
C649        C  0.37629747  0.85345133  0.99279696    -0.16900
C650        C  0.38287016  0.83434365  0.00085367     0.25200
C651        C  0.36341958  0.80902489  0.01024561    -0.18600
C652        C  0.33749382  0.80264238  0.01101525    -0.07500
C653        C  0.40931755  0.83998207  0.99875206    -0.13900
C654        C  0.42966790  0.84024968  0.99746786    -0.13700
C655        C  0.45063271  0.83483444  0.99649830     0.25100
C656        C  0.44456904  0.80899134  0.99352986    -0.19100
C657        C  0.46420766  0.80280472  0.99344847    -0.07500
C658        C  0.49044923  0.82240964  0.99633850    -0.03600
C659        C  0.49647409  0.84846711  0.99914063    -0.08900
C660        C  0.47661688  0.85463305  0.99925611    -0.16600
H661        H  0.34553349  0.86208717  0.98682931     0.11600
H662        H  0.39123003  0.87312010  0.98546141     0.10900
H663        H  0.36828457  0.79408567  0.01659165     0.10800
H664        H  0.32290967  0.78280737  0.01816727     0.11300
H665        H  0.42453684  0.79350811  0.99149303     0.11400
H666        H  0.45869809  0.78252863  0.99123738     0.11400
H667        H  0.51643044  0.86400827  0.00149337     0.11500
H668        H  0.48150253  0.87473030  0.00169677     0.10300
C669        C  0.65857466  0.90727018  0.00523410    -0.03500
C670        C  0.68545421  0.91678519  0.00244612    -0.09200
C671        C  0.70305435  0.94358379  0.00311554    -0.16900
C672        C  0.69402002  0.96115631  0.00670681     0.25200
C673        C  0.66737646  0.95185113  0.00970982    -0.18600
C674        C  0.64981334  0.92520754  0.00897483    -0.07500
C675        C  0.71168387  0.98879825  0.00692382    -0.13900
C676        C  0.72368126  0.01223519  0.00695302    -0.13700
C677        C  0.73393549  0.03991395  0.00668393     0.25100
C678        C  0.71658730  0.04923777  0.00669098    -0.19100
C679        C  0.72573809  0.07586920  0.00592184    -0.07500
C680        C  0.75254019  0.09383467  0.00516256    -0.03600
C681        C  0.76997434  0.08431942  0.00538547    -0.08900
C682        C  0.76069392  0.05749055  0.00610079    -0.16600
H683        H  0.69287216  0.90357286  0.99942612     0.11600
H684        H  0.72365060  0.95057684  0.00068720     0.10900
H685        H  0.66012996  0.96523826  0.01248082     0.10800
H686        H  0.62932071  0.91871338  0.01130546     0.11300
H687        H  0.69585146  0.03585045  0.00716033     0.11400
H688        H  0.71168849  0.08233226  0.00586817     0.11400
H689        H  0.79072073  0.09754812  0.00483384     0.11500
H690        H  0.77433297  0.05049485  0.00608672     0.10300
C691        C  0.90674829  0.24766801  0.99860133    -0.03500
C692        C  0.92471194  0.27442752  0.99585395    -0.09200
C693        C  0.95129610  0.28354409  0.99583195    -0.16900
C694        C  0.96057159  0.26620881  0.99860836     0.25200
C695        C  0.94299260  0.23947857  0.00127843    -0.18600
C696        C  0.91619204  0.23022328  0.00123684    -0.07500
C697        C  0.98821825  0.27649767  0.99899349    -0.13900
C698        C  0.01163115  0.28855405  0.99924836    -0.13700
C699        C  0.03927957  0.30608832  0.99967264     0.25100
C700        C  0.05662704  0.29730878  0.99086748    -0.19100
C701        C  0.08345199  0.31475378  0.99103659    -0.07500
C702        C  0.09320657  0.34124149  0.99983459    -0.03600
C703        C  0.07549452  0.34978223  0.00842481    -0.08900
C704        C  0.04882879  0.33235975  0.00842435    -0.16600
H705        H  0.91828576  0.28847589  0.99370700     0.11600
H706        H  0.96468786  0.30425147  0.99376230     0.10900
H707        H  0.94996376  0.22585597  0.00350922     0.10800
H708        H  0.90293499  0.20951628  0.00351498     0.11300
H709        H  0.04943384  0.27702607  0.98381232     0.11400
H710        H  0.09649899  0.30756063  0.98399429     0.11400
H711        H  0.08220746  0.36997757  0.01541496     0.11500
H712        H  0.03562594  0.33942902  0.01518301     0.10300
C713        C  0.66995981  0.17998831  0.00326874    -0.03500
C714        C  0.65010323  0.15416736  0.01009647    -0.09200
C715        C  0.62407801  0.14795767  0.01223647    -0.16900
C716        C  0.61763981  0.16744798  0.00737259     0.25200
C717        C  0.63722002  0.19299989  0.99984883    -0.18600
C718        C  0.66308624  0.19923844  0.99777378    -0.07500
C719        C  0.59116833  0.16190308  0.00969293    -0.13900
C720        C  0.57081959  0.16173966  0.00988460    -0.13700
C721        C  0.54966128  0.16694644  0.00807516     0.25100
C722        C  0.55539020  0.19248401  0.00153322    -0.19100
C723        C  0.53555295  0.19840372  0.99982527    -0.07500
C724        C  0.50941938  0.17884732  0.00458036    -0.03600
C725        C  0.50370053  0.15306233  0.01066393    -0.08900
C726        C  0.52375511  0.14716853  0.01247965    -0.16600
H727        H  0.65468428  0.13886649  0.01435323     0.11600
H728        H  0.60906515  0.12806464  0.01788267     0.10900
H729        H  0.63248947  0.20822721  0.99577230     0.10800
H730        H  0.67771727  0.21927380  0.99213415     0.11300
H731        H  0.57531754  0.20794397  0.99784880     0.11400
H732        H  0.54080523  0.21843928  0.99478083     0.11400
H733        H  0.48383579  0.13755293  0.01445073     0.11500
H734        H  0.51907501  0.12728700  0.01743327     0.10300
C735        C  0.90606444  0.65988484  0.00086911    -0.03500
C736        C  0.92418242  0.65127084  0.99892196    -0.09200
C737        C  0.95080043  0.66894720  0.99785891    -0.16900
C738        C  0.96006624  0.69565568  0.99882309     0.25200
C739        C  0.94233960  0.70460772  0.00106319    -0.18600
C740        C  0.91550829  0.68684960  0.00208691    -0.07500
C741        C  0.98782472  0.71328872  0.99811134    -0.13900
C742        C  0.01131427  0.72477717  0.99817311    -0.13700
C743        C  0.03901908  0.73468449  0.99908165     0.25100
C744        C  0.05686626  0.76109965  0.99294211    -0.19100
C745        C  0.08363923  0.77010704  0.99338238    -0.07500
C746        C  0.09295232  0.75277461  0.99982500    -0.03600
C747        C  0.07476578  0.72632265  0.00627176    -0.08900
C748        C  0.04813938  0.71743106  0.00592995    -0.16600
H749        H  0.91785096  0.63076133  0.99801802     0.11600
H750        H  0.96423113  0.66170946  0.99629589     0.10900
H751        H  0.94921571  0.72524175  0.00201579     0.10800
H752        H  0.90220770  0.69421945  0.00370401     0.11300
H753        H  0.05011672  0.77470488  0.98765799     0.11400
H754        H  0.09700424  0.79057961  0.98836475     0.11400
H755        H  0.08106294  0.71236984  0.01157400     0.11500
H756        H  0.03460359  0.69696592  0.01084675     0.10300
C757        C  0.74908305  0.65642226  0.00246006    -0.03500
C758        C  0.76618141  0.68345342  0.00410082    -0.09200
C759        C  0.75657172  0.70070145  0.00460341    -0.16900
C760        C  0.72977365  0.69119730  0.00349062     0.25200
C761        C  0.71268371  0.66439102  0.00199530    -0.18600
C762        C  0.72218248  0.64717627  0.00150123    -0.07500
C763        C  0.71940918  0.70856521  0.00347315    -0.13900
C764        C  0.70806531  0.72065450  0.00283668    -0.13700
C765        C  0.69134197  0.73173298  0.00132230     0.25100
C766        C  0.66549886  0.71601766  0.98905262    -0.19100
C767        C  0.64859282  0.72583762  0.98868736    -0.07500
C768        C  0.65720190  0.75170496  0.00043384    -0.03600
C769        C  0.68336775  0.76761746  0.01213580    -0.08900
C770        C  0.70030856  0.75763186  0.01271006    -0.16600
H771        H  0.78695993  0.69128559  0.00493745     0.11600
H772        H  0.77003216  0.72141253  0.00575387     0.10900
H773        H  0.69191565  0.65674407  0.00109643     0.10800
H774        H  0.70834359  0.62656563  0.00024806     0.11300
H775        H  0.65830032  0.69599434  0.98005831     0.11400
H776        H  0.62869214  0.71306975  0.97912243     0.11400
H777        H  0.69061030  0.78758493  0.02144108     0.11500
H778        H  0.72027854  0.77001443  0.02231533     0.10300
C779        C  0.82210752  0.49126565  0.00125212    -0.03500
C780        C  0.80267106  0.46500728  0.99747619    -0.09200
C781        C  0.80880690  0.44534501  0.99991499    -0.16900
C782        C  0.83446618  0.45142285  0.00603225     0.25200
C783        C  0.85411246  0.47745120  0.00945620    -0.18600
C784        C  0.84799499  0.49732169  0.00702592    -0.07500
C785        C  0.84001178  0.43052603  0.00848705    -0.13900
C786        C  0.84032451  0.41042222  0.00938914    -0.13700
C787        C  0.83504098  0.38400658  0.00921818     0.25100
C788        C  0.85486835  0.37795284  0.00556245    -0.19100
C789        C  0.84875708  0.35189133  0.00425121    -0.07500
C790        C  0.82271856  0.33167762  0.00654617    -0.03600
C791        C  0.80311847  0.33820345  0.01022584    -0.08900
C792        C  0.80924511  0.36404129  0.01158642    -0.16600
H793        H  0.78255105  0.45950983  0.99284469     0.11600
H794        H  0.79343543  0.42529845  0.99712040     0.10900
H795        H  0.87406710  0.48236192  0.01415340     0.10800
H796        H  0.86340900  0.51729906  0.01015227     0.11300
H797        H  0.87493770  0.39329368  0.00351299     0.11400
H798        H  0.86432075  0.34759359  0.00131165     0.11400
H799        H  0.78286480  0.32332607  0.01199639     0.11500
H800        H  0.79372777  0.36845598  0.01423075     0.10300
C801        C  0.50911726  0.33033542  0.00992731    -0.03500
C802        C  0.53472173  0.33728330  0.02050206    -0.09200
C803        C  0.55421528  0.36326486  0.02144920    -0.16900
C804        C  0.54856856  0.38279263  0.01178811     0.25200
C805        C  0.52308889  0.37625758  0.00201110    -0.18600
C806        C  0.50340332  0.35013741  0.00123434    -0.07500
C807        C  0.56960253  0.40917378  0.00984717    -0.13900
C808        C  0.59000197  0.42921916  0.00763663    -0.13700
C809        C  0.61652946  0.44984694  0.00476375     0.25100
C810        C  0.62324984  0.47590929  0.00855180    -0.19100
C811        C  0.64937122  0.49549140  0.00689720    -0.07500
C812        C  0.66903042  0.48914584  0.00158857    -0.03600
C813        C  0.66189350  0.46286370  0.99726170    -0.08900
C814        C  0.63589594  0.44344145  0.99886225    -0.16600
H815        H  0.53982393  0.32262842  0.02769335     0.11600
H816        H  0.57387907  0.36811110  0.02898647     0.10900
H817        H  0.51853684  0.39124662  0.99431550     0.10800
H818        H  0.48389787  0.34543956  0.99296513     0.11300
H819        H  0.60838240  0.48106756  0.01312537     0.11400
H820        H  0.65416671  0.51551091  0.01030280     0.11400
H821        H  0.67640064  0.45720164  0.99290509     0.11500
H822        H  0.63090052  0.42332356  0.99584461     0.10300
C823        C  0.43096093  0.29046328  0.13781170    -0.03500
C824        C  0.43667689  0.31570609  0.12692235    -0.09200
C825        C  0.44195527  0.33427361  0.15806712    -0.16900
C826        C  0.44153499  0.32783572  0.20036625     0.25200
C827        C  0.43534281  0.30268447  0.21152784    -0.18600
C828        C  0.43009666  0.28412841  0.18055450    -0.07500
C829        C  0.44842156  0.34719703  0.23237564    -0.13900
C830        C  0.45484624  0.36322167  0.25970772    -0.13700
C831        C  0.46273429  0.38228146  0.29244768     0.25100
C832        C  0.46245150  0.37505192  0.33423526    -0.19100
C833        C  0.46944364  0.39342408  0.36618084    -0.07500
C834        C  0.47682421  0.41931589  0.35669550    -0.03600
C835        C  0.47749568  0.42647320  0.31444697    -0.08900
C836        C  0.47047637  0.40804176  0.28257856    -0.16600
H837        H  0.43764606  0.32129243  0.09438631     0.11600
H838        H  0.44679343  0.35374842  0.14913641     0.10900
H839        H  0.43498969  0.29752012  0.24418489     0.10800
H840        H  0.42577543  0.26492633  0.19016903     0.11300
H841        H  0.45660068  0.35516398  0.34216407     0.11400
H842        H  0.46881616  0.38725876  0.39829885     0.11400
H843        H  0.48309200  0.44621266  0.30598245     0.11500
H844        H  0.47084657  0.41382790  0.25027582     0.10300
C845        C  0.43018370  0.29125459  0.86386599    -0.03500
C846        C  0.43294698  0.31547021  0.87461743    -0.09200
C847        C  0.43739731  0.33388455  0.84349180    -0.16900
C848        C  0.43909579  0.32833446  0.80129492     0.25200
C849        C  0.43567627  0.30409707  0.79026535    -0.18600
C850        C  0.43122973  0.28571694  0.82116612    -0.07500
C851        C  0.44546430  0.34770984  0.76928168    -0.13900
C852        C  0.45171632  0.36354602  0.74157477    -0.13700
C853        C  0.45984759  0.38238301  0.70825650     0.25100
C854        C  0.45912924  0.37471817  0.66654840    -0.19100
C855        C  0.46696187  0.39299942  0.63422799    -0.07500
C856        C  0.47563128  0.41927070  0.64318183    -0.03600
C857        C  0.47650794  0.42679183  0.68530385    -0.08900
C858        C  0.46867641  0.40847170  0.71752986    -0.16600
H859        H  0.43223812  0.32041236  0.90706923     0.11600
H860        H  0.44000261  0.35260570  0.85241381     0.10900
H861        H  0.43693675  0.29955379  0.75775876     0.10800
H862        H  0.42914922  0.26732724  0.81152238     0.11300
H863        H  0.45239966  0.35458288  0.65897700     0.11400
H864        H  0.46594985  0.38647292  0.60223169     0.11400
H865        H  0.48299185  0.44679146  0.69342646     0.11500
H866        H  0.46939115  0.41464756  0.74969346     0.10300
C867        C  0.70888411  0.56849966  0.13785054    -0.03500
C868        C  0.68361686  0.56258068  0.12685271    -0.09200
C869        C  0.66561917  0.55921764  0.15791364    -0.16900
C870        C  0.67267088  0.56185590  0.20024888     0.25200
C871        C  0.69788742  0.56830005  0.21145164    -0.18600
C872        C  0.71586915  0.57157221  0.18053287    -0.07500
C873        C  0.65377294  0.55675828  0.23234197    -0.13900
C874        C  0.63800851  0.55141991  0.25978202    -0.13700
C875        C  0.61927054  0.54409937  0.29289424     0.25100
C876        C  0.62673399  0.54425072  0.33451791    -0.19100
C877        C  0.60845754  0.53664854  0.36671714    -0.07500
C878        C  0.58240718  0.52872321  0.35763538    -0.03600
C879        C  0.57513557  0.52869248  0.31560209    -0.08900
C880        C  0.59346274  0.53632624  0.28349736    -0.16600
H881        H  0.67758074  0.56001552  0.09434899     0.11600
H882        H  0.64609872  0.55415178  0.14894545     0.10900
H883        H  0.70353958  0.57038811  0.24414085     0.10800
H884        H  0.73518647  0.57630564  0.19013198     0.11300
H885        H  0.64667593  0.55018302  0.34207888     0.11400
H886        H  0.61474806  0.53695564  0.39866237     0.11400
H887        H  0.55530736  0.52286135  0.30744628     0.11500
H888        H  0.58748944  0.53610911  0.25134958     0.10300
C889        C  0.70863741  0.57050511  0.86468788    -0.03500
C890        C  0.71302180  0.56764765  0.82212156    -0.09200
C891        C  0.69445118  0.56350565  0.79178582    -0.16900
C892        C  0.67120454  0.56221189  0.80327480     0.25200
C893        C  0.66684857  0.56572276  0.84531112    -0.18600
C894        C  0.68544626  0.56985338  0.87587358    -0.07500
C895        C  0.65159251  0.55615261  0.77186543    -0.13900
C896        C  0.63583588  0.55011788  0.74409588    -0.13700
C897        C  0.61742525  0.54233143  0.71018427     0.25100
C898        C  0.59088995  0.53065501  0.71874658    -0.19100
C899        C  0.57299522  0.52327492  0.68592487    -0.07500
C900        C  0.58136350  0.52736800  0.64389082    -0.03600
C901        C  0.60811911  0.53886553  0.63560574    -0.08900
C902        C  0.62598755  0.54628704  0.66854052    -0.16600
H903        H  0.73058021  0.56801067  0.81221378     0.11600
H904        H  0.69803694  0.56081175  0.75938117     0.10900
H905        H  0.64890735  0.56478480  0.85457198     0.10800
H906        H  0.68144768  0.57204127  0.90826327     0.11300
H907        H  0.58401735  0.52735168  0.75083364     0.11400
H908        H  0.55259588  0.51442571  0.69355189     0.11400
H909        H  0.61530107  0.54236380  0.60371572     0.11500
H910        H  0.64648926  0.55521264  0.66151849     0.10300
C911        C  0.56829572  0.70926660  0.13568807    -0.03500
C912        C  0.56458271  0.68476097  0.12442747    -0.09200
C913        C  0.56019043  0.66627315  0.15526165    -0.16900
C914        C  0.55957036  0.67209127  0.19763563     0.25200
C915        C  0.56413074  0.69667602  0.20917826    -0.18600
C916        C  0.56848022  0.71513741  0.17852414    -0.07500
C917        C  0.55311121  0.65262894  0.22936171    -0.13900
C918        C  0.54692415  0.63678520  0.25695725    -0.13700
C919        C  0.53919903  0.61811818  0.29035492     0.25100
C920        C  0.54109058  0.62610239  0.33211069    -0.19100
C921        C  0.53390899  0.60801151  0.36459790    -0.07500
C922        C  0.52474081  0.58162928  0.35573217    -0.03600
C923        C  0.52266742  0.57380632  0.31354167    -0.08900
C924        C  0.52982058  0.59193110  0.28115107    -0.16600
H925        H  0.56441425  0.67962524  0.09181723     0.11600
H926        H  0.55674799  0.64729106  0.14600645     0.10900
H927        H  0.56378740  0.70141051  0.24188866     0.10800
H928        H  0.57147385  0.73384148  0.18845093     0.11300
H929        H  0.54825233  0.64633549  0.33957819     0.11400
H930        H  0.53577376  0.61475492  0.39662866     0.11400
H931        H  0.51566472  0.55369734  0.30547474     0.11500
H932        H  0.52818092  0.58553359  0.24892266     0.10300
C933        C  0.57023448  0.70982076  0.86303455    -0.03500
C934        C  0.57181111  0.71595440  0.82008924    -0.09200
C935        C  0.56704527  0.69723054  0.78955051    -0.16900
C936        C  0.56063410  0.67208039  0.80131827     0.25200
C937        C  0.55953440  0.66586636  0.84386852    -0.18600
C938        C  0.56433136  0.68459160  0.87455043    -0.07500
C939        C  0.55428068  0.65252452  0.76964068    -0.13900
C940        C  0.54830291  0.63656361  0.74219810    -0.13700
C941        C  0.54067312  0.61800586  0.70854545     0.25100
C942        C  0.53503531  0.62404847  0.66893165    -0.19100
C943        C  0.52751928  0.60609136  0.63613984    -0.07500
C944        C  0.52533486  0.58172398  0.64269645    -0.03600
C945        C  0.53111032  0.57585411  0.68265742    -0.08900
C946        C  0.53874347  0.59388791  0.71529839    -0.16600
H947        H  0.57629168  0.73512022  0.80997436     0.11600
H948        H  0.56793870  0.70226892  0.75671967     0.10900
H949        H  0.55454253  0.64643414  0.85334941     0.10800
H950        H  0.56281600  0.67911498  0.90723242     0.11300
H951        H  0.53645594  0.64266825  0.66338414     0.11400
H952        H  0.52327707  0.61122270  0.60578742     0.11400
H953        H  0.52998243  0.55740944  0.68865616     0.11500
H954        H  0.54314161  0.58901836  0.74576573     0.10300
C955        C  0.41867992  0.47232087  0.35428388    -0.03500
C956        C  0.39420529  0.46977720  0.36130725    -0.09200
C957        C  0.37624368  0.46262943  0.32863616    -0.16900
C958        C  0.38236649  0.45774057  0.28855691     0.25200
C959        C  0.40674425  0.46043519  0.28108766    -0.18600
C960        C  0.42481698  0.46772719  0.31367154    -0.07500
C961        C  0.36356454  0.44999784  0.25526911    -0.13900
C962        C  0.34741981  0.44407088  0.22817466    -0.13700
C963        C  0.32795708  0.43826842  0.19660494     0.25100
C964        C  0.33455146  0.44097370  0.15405906    -0.19100
C965        C  0.31608404  0.43713814  0.12352915    -0.07500
C966        C  0.29075163  0.43065000  0.13520182    -0.03600
C967        C  0.28419494  0.42744837  0.17808101    -0.08900
C968        C  0.30265790  0.43119510  0.20848978    -0.16600
H969        H  0.38895129  0.47339635  0.39202915     0.11600
H970        H  0.35750399  0.46078926  0.33470577     0.10900
H971        H  0.41173941  0.45678621  0.25015961     0.10800
H972        H  0.44345264  0.46943854  0.30717362     0.11300
H973        H  0.35410890  0.44654002  0.14450798     0.11400
H974        H  0.32183988  0.43988935  0.09089218     0.11400
H975        H  0.26487425  0.42236295  0.18823912     0.11500
H976        H  0.29732625  0.42906572  0.24132622     0.10300
C977        C  0.41715163  0.47335237  0.64167432    -0.03500
C978        C  0.39092130  0.46476936  0.63270646    -0.09200
C979        C  0.37271717  0.45738007  0.66506704    -0.16900
C980        C  0.38038990  0.45842105  0.70682384     0.25200
C981        C  0.40635961  0.46678458  0.71610435    -0.18600
C982        C  0.42461214  0.47420492  0.68383362    -0.07500
C983        C  0.36167222  0.45134176  0.74008883    -0.13900
C984        C  0.34570002  0.44576319  0.76735748    -0.13700
C985        C  0.32622940  0.43946135  0.79910158     0.25100
C986        C  0.33160800  0.43734937  0.84117449    -0.19100
C987        C  0.31290582  0.43200173  0.87208452    -0.07500
C988        C  0.28856217  0.42879130  0.86128882    -0.03600
C989        C  0.28318517  0.43037742  0.81869037    -0.08900
C990        C  0.30191054  0.43576563  0.78793830    -0.16600
H991        H  0.38441914  0.46374256  0.60070314     0.11600
H992        H  0.35265612  0.45093110  0.65751343     0.10900
H993        H  0.41253228  0.46765331  0.74830236     0.10800
H994        H  0.44455363  0.48052599  0.69197317     0.11300
H995        H  0.35038311  0.44017458  0.85016814     0.11400
H996        H  0.31773952  0.43097148  0.90447589     0.11400
H997        H  0.26472841  0.42811575  0.80909916     0.11500
H998        H  0.29751917  0.43736952  0.75549027     0.10300
C999        C  0.86284392  0.57179348  0.13546393    -0.03500
C1000       C  0.87975516  0.56264176  0.12459434    -0.09200
C1001       C  0.89433166  0.55898248  0.15546468    -0.16900
C1002       C  0.89236888  0.56459309  0.19748588     0.25200
C1003       C  0.87610568  0.57431107  0.20841634    -0.18600
C1004       C  0.86141637  0.57784045  0.17769852    -0.07500
C1005       C  0.90595079  0.55913716  0.22966534    -0.13900
C1006       C  0.91605238  0.55336918  0.25715488    -0.13700
C1007       C  0.92677825  0.54535466  0.29055195     0.25100
C1008       C  0.91541180  0.54015233  0.33038123    -0.19100
C1009       C  0.92551017  0.53205377  0.36281865    -0.07500
C1010       C  0.94708988  0.52889533  0.35578534    -0.03600
C1011       C  0.95826734  0.53400038  0.31551077    -0.08900
C1012       C  0.94821481  0.54224033  0.28319526    -0.16600
H1013       H  0.88116867  0.55760950  0.09245863     0.11600
H1014       H  0.90676099  0.55132470  0.14666417     0.10900
H1015       H  0.87439584  0.57870423  0.24082187     0.10800
H1016       H  0.84870693  0.58503712  0.18711240     0.11300
H1017       H  0.89873674  0.54238160  0.33638701     0.11400
H1018       H  0.91641529  0.52826752  0.39337640     0.11400
H1019       H  0.97503582  0.53201372  0.30909369     0.11500
H1020       H  0.95717135  0.54618690  0.25249622     0.10300
C1021       C  0.94761718  0.53179965  0.64231530    -0.03500
C1022       C  0.95968523  0.53856151  0.68186791    -0.09200
C1023       C  0.94900032  0.54591167  0.71436259    -0.16900
C1024       C  0.92608636  0.54648235  0.70782801     0.25200
C1025       C  0.91409985  0.54008949  0.66843073    -0.18600
C1026       C  0.92487400  0.53293198  0.63574435    -0.07500
C1027       C  0.91456032  0.55308145  0.74175874    -0.13900
C1028       C  0.90401031  0.55789135  0.76970042    -0.13700
C1029       C  0.88980993  0.56265992  0.80153253     0.25100
C1030       C  0.86798497  0.56422707  0.79022328    -0.19100
C1031       C  0.85330438  0.56771691  0.82087749    -0.07500
C1032       C  0.86021400  0.56968143  0.86351594    -0.03600
C1033       C  0.88247267  0.56846846  0.87456435    -0.08900
C1034       C  0.89715992  0.56496102  0.84371309    -0.16600
H1035       H  0.97743400  0.53824117  0.68766003     0.11600
H1036       H  0.95849027  0.55093477  0.74466659     0.10900
H1037       H  0.89632890  0.54045136  0.66307535     0.10800
H1038       H  0.91517526  0.52783180  0.60562384     0.11300
H1039       H  0.86211328  0.56244016  0.75767611     0.11400
H1040       H  0.83633892  0.56855571  0.81110087     0.11400
H1041       H  0.88836054  0.56989286  0.90702112     0.11500
H1042       H  0.91403821  0.56374546  0.85279624     0.10300
C1043       C  0.94247546  0.42042571  0.35732656    -0.03500
C1044       C  0.92585167  0.39394603  0.36626079    -0.09200
C1045       C  0.91572001  0.37571502  0.33387171    -0.16900
C1046       C  0.92200194  0.38366892  0.29218257     0.25200
C1047       C  0.93835963  0.40992987  0.28288974    -0.18600
C1048       C  0.94855238  0.42820880  0.31519923    -0.07500
C1049       C  0.91118443  0.36493234  0.25892586    -0.13900
C1050       C  0.90116806  0.34905755  0.23148171    -0.13700
C1051       C  0.88783431  0.32976375  0.19969017     0.25100
C1052       C  0.89351399  0.33601729  0.15726556    -0.19100
C1053       C  0.87971563  0.31741487  0.12640561    -0.07500
C1054       C  0.86003071  0.29232706  0.13772882    -0.03600
C1055       C  0.85465740  0.28626526  0.18057311    -0.08900
C1056       C  0.86847052  0.30485161  0.21125361    -0.16600
H1057       H  0.92089477  0.38722963  0.39827750     0.11600
H1058       H  0.90300962  0.35541065  0.34135199     0.10900
H1059       H  0.94325960  0.41627771  0.25067704     0.10800
H1060       H  0.96133334  0.44839110  0.30714072     0.11300
H1061       H  0.90839013  0.35534060  0.14803590     0.11400
H1062       H  0.88418302  0.32280593  0.09377164     0.11400
H1063       H  0.83959027  0.26721010  0.19051492     0.11500
H1064       H  0.86384350  0.29986351  0.24400779     0.10300
C1065       C  0.94340727  0.41901094  0.64379914    -0.03500
C1066       C  0.92092523  0.39485570  0.63684934    -0.09200
C1067       C  0.91035569  0.37651519  0.66909394    -0.16900
C1068       C  0.92221215  0.38193284  0.70857786     0.25200
C1069       C  0.94469666  0.40581596  0.71572234    -0.18600
C1070       C  0.95518053  0.42426452  0.68365166    -0.07500
C1071       C  0.91119964  0.36302843  0.74174340    -0.13900
C1072       C  0.90147305  0.34702115  0.76916952    -0.13700
C1073       C  0.88892904  0.32767875  0.80136083     0.25100
C1074       C  0.89321314  0.33473229  0.84372785    -0.19100
C1075       C  0.87974214  0.31623390  0.87488842    -0.07500
C1076       C  0.86162276  0.29041768  0.86404078    -0.03600
C1077       C  0.85807414  0.28338453  0.82134328    -0.08900
C1078       C  0.87163710  0.30188322  0.79030084    -0.16600
H1079       H  0.91140801  0.39019401  0.60658694     0.11600
H1080       H  0.89293457  0.35809106  0.66321012     0.10900
H1081       H  0.95411274  0.41019992  0.74608699     0.10800
H1082       H  0.97265989  0.44253606  0.68995257     0.11300
H1083       H  0.90656185  0.35464952  0.85266429     0.11400
H1084       H  0.88288988  0.32236306  0.90736188     0.11400
H1085       H  0.84440174  0.26368894  0.81181292     0.11500
H1086       H  0.86821856  0.29616898  0.75762209     0.10300
C1087       C  0.13693332  0.42788484  0.13560410    -0.03500
C1088       C  0.12269814  0.44021825  0.12580500    -0.09200
C1089       C  0.10883207  0.44463696  0.15698397    -0.16900
C1090       C  0.10878133  0.43656634  0.19823675     0.25200
C1091       C  0.12209883  0.42341111  0.20786465    -0.18600
C1092       C  0.13617757  0.41919157  0.17684077    -0.07500
C1093       C  0.09633209  0.44302696  0.23113246    -0.13900
C1094       C  0.08693144  0.44928591  0.25916857    -0.13700
C1095       C  0.07618524  0.45723624  0.29280532     0.25100
C1096       C  0.08071853  0.45360187  0.33466783    -0.19100
C1097       C  0.07006894  0.46107120  0.36728133    -0.07500
C1098       C  0.05466376  0.47232223  0.35854354    -0.03600
C1099       C  0.05045448  0.47609732  0.31626284    -0.08900
C1100       C  0.06115069  0.46864792  0.28375849    -0.16600
H1101       H  0.12307769  0.44733208  0.09441695     0.11600
H1102       H  0.09867261  0.45489733  0.14911952     0.10900
H1103       H  0.12215465  0.41700025  0.23961721     0.10800
H1104       H  0.14681525  0.40950723  0.18525687     0.11300
H1105       H  0.09239449  0.44487116  0.34213057     0.11400
H1106       H  0.07374489  0.45783069  0.39931508     0.11400
H1107       H  0.03877669  0.48471566  0.30818115     0.11500
H1108       H  0.05757075  0.47168131  0.25153060     0.10300
C1109       C  0.05138490  0.47155252  0.64641554    -0.03500
C1110       C  0.03959418  0.46585383  0.68624807    -0.09200
C1111       C  0.04990208  0.45834059  0.71913889    -0.16900
C1112       C  0.07221155  0.45661562  0.71275975     0.25200
C1113       C  0.08409189  0.46227687  0.67332405    -0.18600
C1114       C  0.07371015  0.46959429  0.64029422    -0.07500
C1115       C  0.08335783  0.44961423  0.74674157    -0.13900
C1116       C  0.09404861  0.44459188  0.77416304    -0.13700
C1117       C  0.10850591  0.43961149  0.80520375     0.25100
C1118       C  0.12898305  0.43605206  0.79262974    -0.19100
C1119       C  0.14378406  0.43211574  0.82247889    -0.07500
C1120       C  0.13830883  0.43167250  0.86549134    -0.03600
C1121       C  0.11752581  0.43510214  0.87785870    -0.08900
C1122       C  0.10274234  0.43906914  0.84784665    -0.16600
H1123       H  0.02229533  0.46701770  0.69193941     0.11600
H1124       H  0.04055365  0.45400694  0.74954394     0.10900
H1125       H  0.10144476  0.46110471  0.66813148     0.10800
H1126       H  0.08329180  0.47394435  0.61010696     0.11300
H1127       H  0.13367559  0.43655727  0.75970379     0.11400
H1128       H  0.15964986  0.42962957  0.81178483     0.11400
H1129       H  0.11286941  0.43504452  0.91068332     0.11500
H1130       H  0.08699818  0.44194649  0.85790689     0.10300
C1131       C  0.06174908  0.58104756  0.35889525    -0.03500
C1132       C  0.05085948  0.57560604  0.31836746    -0.09200
C1133       C  0.06187546  0.59397296  0.28637981    -0.16900
C1134       C  0.08399250  0.61797408  0.29428788     0.25200
C1135       C  0.09523646  0.62347856  0.33423456    -0.18600
C1136       C  0.08417541  0.60516847  0.36640933    -0.07500
C1137       C  0.09509304  0.63697839  0.26144977    -0.13900
C1138       C  0.10478700  0.65296800  0.23409969    -0.13700
C1139       C  0.11731965  0.67219009  0.20192512     0.25100
C1140       C  0.13697788  0.69715871  0.21267672    -0.19100
C1141       C  0.15006311  0.71558277  0.18144853    -0.07500
C1142       C  0.14360726  0.70931566  0.13888065    -0.03600
C1143       C  0.12358983  0.68420567  0.12841977    -0.08900
C1144       C  0.11054020  0.66577170  0.15980432    -0.16600
H1145       H  0.03346103  0.55736058  0.31151460     0.11600
H1146       H  0.05300537  0.58952841  0.25558025     0.10900
H1147       H  0.11241762  0.64201412  0.34060722     0.10800
H1148       H  0.09303134  0.60998660  0.39718472     0.11300
H1149       H  0.14241285  0.70230547  0.24518448     0.11400
H1150       H  0.16538555  0.73468290  0.19072926     0.11400
H1151       H  0.11826298  0.67867164  0.09601899     0.11500
H1152       H  0.09539032  0.64642951  0.15118724     0.10300
C1153       C  0.13636956  0.70900837  0.86669943    -0.03500
C1154       C  0.11602649  0.68438276  0.87871095    -0.09200
C1155       C  0.10140364  0.66573148  0.84835364    -0.16900
C1156       C  0.10687450  0.67148688  0.80574674     0.25200
C1157       C  0.12653191  0.69613212  0.79353895    -0.18600
C1158       C  0.14116884  0.71476057  0.82371630    -0.07500
C1159       C  0.09353453  0.65178300  0.77444408    -0.13900
C1160       C  0.08408624  0.63575118  0.74702788    -0.13700
C1161       C  0.07426541  0.61722217  0.71324896     0.25100
C1162       C  0.08418646  0.62486402  0.67271453    -0.19100
C1163       C  0.07460334  0.60702023  0.63963763    -0.07500
C1164       C  0.05494593  0.58120369  0.64670051    -0.03600
C1165       C  0.04544102  0.57363483  0.68783990    -0.08900
C1166       C  0.05501651  0.59152839  0.72079730    -0.16600
H1167       H  0.11184660  0.67926971  0.91149187     0.11600
H1168       H  0.08625724  0.64665946  0.85812250     0.10900
H1169       H  0.13095731  0.70077383  0.76064995     0.10800
H1170       H  0.15660652  0.73349712  0.81328510     0.11300
H1171       H  0.09924541  0.64468465  0.66661466     0.11400
H1172       H  0.08245411  0.61350288  0.60852975     0.11400
H1173       H  0.03030765  0.55395712  0.69456186     0.11500
H1174       H  0.04729335  0.58535169  0.75208765     0.10300
C1175       C  0.29183367  0.86288538  0.13436347    -0.03500
C1176       C  0.31570550  0.88463981  0.12303502    -0.09200
C1177       C  0.33433461  0.89889808  0.15370063    -0.16900
C1178       C  0.32930943  0.89157192  0.19591379     0.25200
C1179       C  0.30549512  0.87031504  0.20744733    -0.18600
C1180       C  0.28690717  0.85610339  0.17703028    -0.07500
C1181       C  0.34874126  0.90498281  0.22757212    -0.13900
C1182       C  0.36430627  0.91462237  0.25558022    -0.13700
C1183       C  0.38260191  0.92519244  0.28957300     0.25100
C1184       C  0.37474665  0.91654473  0.33065526    -0.19100
C1185       C  0.39256410  0.92682654  0.36367394    -0.07500
C1186       C  0.41854979  0.94585627  0.35596286    -0.03600
C1187       C  0.42620913  0.95430325  0.31443680    -0.08900
C1188       C  0.40836303  0.94402525  0.28156182    -0.16600
H1189       H  0.32016244  0.89038089  0.09052220     0.11600
H1190       H  0.35276535  0.91533357  0.14443478     0.10900
H1191       H  0.30142945  0.86443844  0.23998862     0.10800
H1192       H  0.26883390  0.83947816  0.18701633     0.11300
H1193       H  0.35483660  0.90189898  0.33718380     0.11400
H1194       H  0.38596275  0.91991527  0.39517971     0.11400
H1195       H  0.44597988  0.96900408  0.30726242     0.11500
H1196       H  0.41466025  0.95082335  0.24988605     0.10300
C1197       C  0.41779452  0.94473301  0.64304392    -0.03500
C1198       C  0.42337909  0.95556051  0.68359695    -0.09200
C1199       C  0.40492189  0.94467502  0.71552030    -0.16900
C1200       C  0.38074751  0.92279775  0.70740643     0.25200
C1201       C  0.37507527  0.91178569  0.66731164    -0.18600
C1202       C  0.39343331  0.92271031  0.63527031    -0.07500
C1203       C  0.36183808  0.91143391  0.74028262    -0.13900
C1204       C  0.34596659  0.90128642  0.76765424    -0.13700
C1205       C  0.32703807  0.88823451  0.80000234     0.25100
C1206       C  0.30124414  0.87089794  0.78923177    -0.19100
C1207       C  0.28305355  0.85713601  0.82043638    -0.07500
C1208       C  0.29042890  0.86056714  0.86291376    -0.03600
C1209       C  0.31631434  0.87848529  0.87352766    -0.08900
C1210       C  0.33452217  0.89215134  0.84217551    -0.16600
H1211       H  0.44186925  0.97264278  0.69053714     0.11600
H1212       H  0.40949252  0.95332968  0.74648428     0.10900
H1213       H  0.35644239  0.89476907  0.66079561     0.10800
H1214       H  0.38858453  0.91386701  0.60447544     0.11300
H1215       H  0.29526839  0.86771600  0.75666669     0.11400
H1216       H  0.26327194  0.84356668  0.81123352     0.11400
H1217       H  0.32265722  0.88140220  0.90589219     0.11500
H1218       H  0.35450115  0.90545935  0.85077066     0.10300
C1219       C  0.52264297  0.94369123  0.35643538    -0.03500
C1220       C  0.52141354  0.95052405  0.31454254    -0.09200
C1221       C  0.52802532  0.93946800  0.28160370    -0.16900
C1222       C  0.53589984  0.92140202  0.28996158     0.25200
C1223       C  0.53678736  0.91414496  0.33138672    -0.18600
C1224       C  0.53020396  0.92518670  0.36443279    -0.07500
C1225       C  0.54321689  0.91038078  0.25613390    -0.13900
C1226       C  0.54933775  0.90059313  0.22864882    -0.13700
C1227       C  0.55625739  0.88772215  0.19730758     0.25100
C1228       C  0.56158476  0.86829755  0.20934013    -0.19100
C1229       C  0.56722578  0.85486931  0.17910144    -0.07500
C1230       C  0.56763214  0.86066846  0.13618418    -0.03600
C1231       C  0.56273283  0.88061462  0.12445591    -0.08900
C1232       C  0.55705175  0.89401468  0.15484762    -0.16600
H1233       H  0.51565484  0.96466690  0.30713320     0.11600
H1234       H  0.52718388  0.94516390  0.24965276     0.10900
H1235       H  0.54276211  0.90008269  0.33817364     0.10800
H1236       H  0.53127551  0.91939913  0.39620140     0.11300
H1237       H  0.56101650  0.86326013  0.24211220     0.11400
H1238       H  0.57084059  0.83963868  0.18938222     0.11400
H1239       H  0.56269151  0.88547653  0.09176764     0.11500
H1240       H  0.55291131  0.90900375  0.14517528     0.10300
C1241       C  0.56990307  0.86229496  0.86388531    -0.03500
C1242       C  0.57140641  0.88582669  0.87569358    -0.09200
C1243       C  0.56791084  0.90110344  0.84596038    -0.16900
C1244       C  0.56288444  0.89310789  0.80405008     0.25200
C1245       C  0.56144283  0.86982251  0.79200596    -0.18600
C1246       C  0.56496509  0.85455299  0.82158476    -0.07500
C1247       C  0.55864214  0.90831991  0.77327156    -0.13900
C1248       C  0.55401478  0.91937806  0.74584859    -0.13700
C1249       C  0.54692456  0.93051276  0.71179785     0.25100
C1250       C  0.55052907  0.92539424  0.67024420    -0.19100
C1251       C  0.54209094  0.93469524  0.63704587    -0.07500
C1252       C  0.52992611  0.94932582  0.64494681    -0.03600
C1253       C  0.52669858  0.95462012  0.68693945    -0.08900
C1254       C  0.53511722  0.94526884  0.72002802    -0.16600
H1255       H  0.57512543  0.89238579  0.90793794     0.11600
H1256       H  0.56896992  0.91904258  0.85571397     0.10900
H1257       H  0.55742591  0.86336423  0.75970641     0.10800
H1258       H  0.56351065  0.83652977  0.81132655     0.11300
H1259       H  0.55958699  0.91392336  0.66349142     0.11400
H1260       H  0.54506830  0.93038629  0.60524211     0.11400
H1261       H  0.51755145  0.96591273  0.69435544     0.11500
H1262       H  0.53213272  0.94929719  0.75203199     0.10300
C1263       C  0.58209416  0.05554911  0.35785973    -0.03500
C1264       C  0.57586686  0.04548308  0.31680392    -0.09200
C1265       C  0.59462784  0.05521015  0.28508508    -0.16900
C1266       C  0.61988654  0.07514876  0.29379084     0.25200
C1267       C  0.62625930  0.08534677  0.33441834    -0.18600
C1268       C  0.60756185  0.07562057  0.36622829    -0.07500
C1269       C  0.63915458  0.08550925  0.26098020    -0.13900
C1270       C  0.65538296  0.09515027  0.23380637    -0.13700
C1271       C  0.67477988  0.10823608  0.20180165     0.25100
C1272       C  0.70009354  0.12690038  0.21310144    -0.19100
C1273       C  0.71832852  0.14141506  0.18224284    -0.07500
C1274       C  0.71150781  0.13748920  0.13947979    -0.03600
C1275       C  0.68629494  0.11794771  0.12836294    -0.08900
C1276       C  0.66806219  0.10349991  0.15933704    -0.16600
H1277       H  0.55656438  0.02987717  0.30921559     0.11600
H1278       H  0.58942234  0.04715913  0.25377624     0.10900
H1279       H  0.64571703  0.10083646  0.34154368     0.10800
H1280       H  0.61309746  0.08379438  0.39739052     0.11300
H1281       H  0.70556770  0.13071093  0.24583634     0.11400
H1282       H  0.73759878  0.15611463  0.19198377     0.11400
H1283       H  0.68037077  0.11436745  0.09581306     0.11500
H1284       H  0.64853539  0.08909818  0.15017414     0.10300
C1285       C  0.70661775  0.14044031  0.86797592    -0.03500
C1286       C  0.68116562  0.12173818  0.87959575    -0.09200
C1287       C  0.66248145  0.10764435  0.84890971    -0.16900
C1288       C  0.66900983  0.11195982  0.80632786     0.25200
C1289       C  0.69434650  0.13020296  0.79458558    -0.18600
C1290       C  0.71298679  0.14433941  0.82508480    -0.07500
C1291       C  0.64969870  0.09829822  0.77446082    -0.13900
C1292       C  0.63408801  0.08790362  0.74663845    -0.13700
C1293       C  0.61593362  0.07650479  0.71248796     0.25100
C1294       C  0.62449828  0.08278356  0.67100490    -0.19100
C1295       C  0.60688252  0.07218259  0.63775483    -0.07500
C1296       C  0.58036519  0.05509608  0.64553537    -0.03600
C1297       C  0.57199007  0.04883901  0.68744581    -0.08900
C1298       C  0.58963941  0.05948624  0.72059564    -0.16600
H1299       H  0.67555428  0.11835105  0.91228679     0.11600
H1300       H  0.64289591  0.09361199  0.85837294     0.10900
H1301       H  0.69964818  0.13372705  0.76176491     0.10800
H1302       H  0.73237584  0.15848076  0.81497001     0.11300
H1303       H  0.64481325  0.09595897  0.66434449     0.11400
H1304       H  0.61405615  0.07737123  0.60600245     0.11400
H1305       H  0.55176915  0.03571229  0.69474134     0.11500
H1306       H  0.58275065  0.05449090  0.75254795     0.10300
C1307       C  0.42444164  0.13548868  0.13631393    -0.03500
C1308       C  0.41760115  0.13620612  0.17834386    -0.09200
C1309       C  0.42217263  0.12231268  0.20925538    -0.16900
C1310       C  0.43369551  0.10757474  0.19869151     0.25200
C1311       C  0.44000486  0.10623459  0.15685778    -0.18600
C1312       C  0.43532421  0.11999205  0.12584045    -0.07500
C1313       C  0.44019229  0.09490705  0.23103896    -0.13900
C1314       C  0.44661031  0.08539864  0.25858033    -0.13700
C1315       C  0.45510507  0.07507436  0.29189737     0.25100
C1316       C  0.46382504  0.05772823  0.28288229    -0.19100
C1317       C  0.47231650  0.04792900  0.31519792    -0.07500
C1318       C  0.47220477  0.05534807  0.35712899    -0.03600
C1319       C  0.46353149  0.07293828  0.36578661    -0.08900
C1320       C  0.45506239  0.08271131  0.33338381    -0.16600
H1321       H  0.40919072  0.14791545  0.18749636     0.11600
H1322       H  0.41724154  0.12352963  0.24154412     0.10900
H1323       H  0.44906534  0.09500940  0.14833205     0.10800
H1324       H  0.44109703  0.11922477  0.09392570     0.11300
H1325       H  0.46401932  0.05173128  0.25087649     0.11400
H1326       H  0.47872852  0.03434988  0.30730783     0.11400
H1327       H  0.46312305  0.07905307  0.39761102     0.11500
H1328       H  0.44843895  0.09620629  0.34071124     0.10300
C1329       C  0.47223976  0.05458745  0.64435558    -0.03500
C1330       C  0.46428920  0.07276299  0.63608615    -0.09200
C1331       C  0.45667307  0.08305561  0.66882263    -0.16900
C1332       C  0.45689197  0.07532668  0.71014457     0.25200
C1333       C  0.46487102  0.05738941  0.71878440    -0.18600
C1334       C  0.47250777  0.04707086  0.68615070    -0.07500
C1335       C  0.44956985  0.08634482  0.74375404    -0.13900
C1336       C  0.44446901  0.09682317  0.77134679    -0.13700
C1337       C  0.43998559  0.11130455  0.80286788     0.25100
C1338       C  0.43271584  0.10147369  0.84351639    -0.19100
C1339       C  0.42948927  0.11630970  0.87438897    -0.07500
C1340       C  0.43344304  0.14111271  0.86475801    -0.03600
C1341       C  0.44058898  0.15065109  0.82365533    -0.08900
C1342       C  0.44383694  0.13584249  0.79300505    -0.16600
H1343       H  0.46387412  0.07899523  0.60435906     0.11600
H1344       H  0.45064365  0.09706369  0.66191268     0.10900
H1345       H  0.46521047  0.05139549  0.75073164     0.10800
H1346       H  0.47845104  0.03308700  0.69370635     0.11300
H1347       H  0.42975593  0.08247884  0.85140658     0.11400
H1348       H  0.42390815  0.10837599  0.90567014     0.11400
H1349       H  0.44392697  0.16969282  0.81515528     0.11500
H1350       H  0.44959135  0.14364775  0.76165715     0.10300
loop_ 
_geom_bond_atom_site_label_1 
_geom_bond_atom_site_label_2 
_geom_bond_distance 
_geom_bond_site_symmetry_2 
_ccdc_geom_bond_type 
O1          Zr13   2.447       .  S
O1            C3   1.290       .  A
O2          Zr39   2.406       .  S
O2            C3   1.284       .  A
C3         C1329   1.480       .  S
O4          Zr16   2.453       .  S
O4            C6   1.290       .  A
O5          Zr40   2.415   1_565  S
O5            C6   1.285       .  A
C6         C1186   1.485       .  S
O7          Zr16   2.446       .  S
O7            C9   1.289       .  A
O8          Zr39   2.412   1_565  S
O8            C9   1.285       .  A
C9         C1197   1.480       .  S
O10         Zr13   2.450       .  S
O10          C12   1.290       .  A
O11         Zr40   2.417       .  S
O11          C12   1.286       .  A
C12        C1318   1.485       .  S
Zr13         O14   2.435       .  S
Zr13         O15   2.435       .  S
Zr13         O19   2.376       .  S
Zr13         O20   2.370       .  S
Zr13         O43   2.375       .  S
Zr13         O45   2.373       .  S
O14          H57   0.990       .  S
O15          H56   0.990       .  S
O15          H60   0.990       .  S
Zr16         O17   2.435       .  S
Zr16         O18   2.436       .  S
Zr16         O20   2.371   1_565  S
Zr16         O19   2.374   1_565  S
Zr16         O44   2.376       .  S
Zr16         O46   2.372       .  S
O17          H58   0.990       .  S
O17          H61   0.990       .  S
O18          H51   0.990       .  S
O19         Zr39   2.376       .  S
O20         Zr40   2.379       .  S
O20          H47   0.965       .  S
O21         Zr33   2.456       .  S
O21          C23   1.291       .  A
O22         Zr40   2.421       .  S
O22          C23   1.286       .  A
C23        C1263   1.488       .  S
O24         Zr36   2.462       .  S
O24          C26   1.292       .  A
O25         Zr39   2.410   1_565  S
O25          C26   1.284       .  A
C26        C1252   1.488       .  S
O27         Zr36   2.452       .  S
O27          C29   1.290       .  A
O28         Zr40   2.408   1_565  S
O28          C29   1.284       .  A
C29        C1219   1.483       .  S
O30         Zr33   2.457       .  S
O30          C32   1.291       .  A
O31         Zr39   2.411       .  S
O31          C32   1.284       .  A
C32        C1296   1.487       .  S
Zr33         O34   2.434       .  S
Zr33         O35   2.436       .  S
Zr33         O41   2.375       .  S
Zr33         O42   2.373       .  S
Zr33         O45   2.372       .  S
Zr33         O43   2.377       .  S
O34          H54   0.990       .  S
O34          H59   0.990       .  S
O35          H55   0.990       .  S
Zr36         O37   2.434       .  S
Zr36         O38   2.435       .  S
Zr36         O42   2.372   1_565  S
Zr36         O41   2.374   1_565  S
Zr36         O46   2.375       .  S
Zr36         O44   2.371       .  S
O37          H53   0.990       .  S
O38          H52   0.990       .  S
O38          H62   0.990       .  S
Zr39         O42   2.372       .  S
Zr39         O44   2.381   1_545  S
Zr39         O45   2.383       .  S
Zr40         O41   2.383       .  S
Zr40         O43   2.380       .  S
Zr40         O46   2.380   1_545  S
O41          H49   0.965       .  S
O44          H48   0.966       .  S
O45          H50   0.966       .  S
O63         Zr75   2.460       .  S
O63          C65   1.292       .  A
O64        Zr101   2.410   1_455  S
O64          C65   1.284       .  A
C65        C1164   1.487       .  S
O66         Zr78   2.448       .  S
O66          C68   1.289       .  A
O67        Zr102   2.421   1_655  S
O67          C68   1.286       .  A
C68        C1010   1.484       .  S
O69         Zr78   2.443       .  S
O69          C71   1.288       .  A
O70        Zr101   2.411       .  S
O70          C71   1.285       .  A
C71        C1021   1.477       .  S
O72         Zr75   2.451       .  S
O72          C74   1.290       .  A
O73        Zr102   2.413       .  S
O73          C74   1.285       .  A
C74        C1131   1.482       .  S
Zr75         O76   2.434       .  S
Zr75         O77   2.436       .  S
Zr75         O81   2.370       .  S
Zr75         O82   2.376       .  S
Zr75        O105   2.378       .  S
Zr75        O107   2.374       .  S
O76         H119   0.990       .  S
O77         H118   0.990       .  S
O77         H122   0.990       .  S
Zr78         O79   2.436       .  S
Zr78         O80   2.434       .  S
Zr78         O82   2.373   1_655  S
Zr78         O81   2.372   1_655  S
Zr78        O106   2.378       .  S
Zr78        O108   2.374       .  S
O79         H120   0.990       .  S
O79         H123   0.990       .  S
O80         H113   0.990       .  S
O81        Zr101   2.375   1_455  S
O82        Zr102   2.383       .  S
O82         H109   0.966       .  S
O83         Zr95   2.461       .  S
O83          C85   1.292       .  A
O84        Zr102   2.426       .  S
O84          C85   1.287       .  A
C85        C1098   1.492       .  S
O86         Zr98   2.453       .  S
O86          C88   1.291       .  A
O87        Zr101   2.415       .  S
O87          C88   1.285       .  A
C88        C1065   1.484       .  S
O89         Zr98   2.445       .  S
O89          C91   1.289       .  A
O90        Zr102   2.414   1_655  S
O90          C91   1.285       .  A
C91        C1043   1.482       .  S
O92         Zr95   2.449       .  S
O92          C94   1.290       .  A
O93        Zr101   2.411   1_455  S
O93          C94   1.285       .  A
C94        C1109   1.481       .  S
Zr95         O96   2.435       .  S
Zr95         O97   2.433       .  S
Zr95        O103   2.370   1_455  S
Zr95        O104   2.372   1_455  S
Zr95        O107   2.377       .  S
Zr95        O105   2.374       .  S
O96         H116   0.990       .  S
O96         H121   0.990       .  S
O97         H117   0.990       .  S
Zr98         O99   2.434       .  S
Zr98        O100   2.434       .  S
Zr98        O104   2.370       .  S
Zr98        O103   2.377       .  S
Zr98        O108   2.374       .  S
Zr98        O106   2.370       .  S
O99         H115   0.990       .  S
O100        H114   0.990       .  S
O100        H124   0.990       .  S
Zr101       O104   2.372       .  S
Zr101       O106   2.383       .  S
Zr101       O107   2.383   1_655  S
Zr102       O103   2.381   1_455  S
Zr102       O105   2.380       .  S
Zr102       O108   2.382   1_455  S
O103        H111   0.965       .  S
O106        H110   0.966       .  S
O107        H112   0.966       .  S
O125       Zr137   2.454       .  S
O125        C127   1.291       .  A
O126       Zr163   2.408       .  S
O126        C127   1.284       .  A
C127        C944   1.481       .  S
O128       Zr140   2.455       .  S
O128        C130   1.291       .  A
O129       Zr164   2.414       .  S
O129        C130   1.285       .  A
C130        C955   1.484       .  S
O131       Zr140   2.448       .  S
O131        C133   1.290       .  A
O132       Zr163   2.424       .  S
O132        C133   1.287       .  A
C133        C977   1.487       .  S
O134       Zr137   2.446       .  S
O134        C136   1.289       .  A
O135       Zr164   2.419       .  S
O135        C136   1.286       .  A
C136        C922   1.485       .  S
Zr137       O138   2.435       .  S
Zr137       O139   2.437       .  S
Zr137       O143   2.376       .  S
Zr137       O144   2.375       .  S
Zr137       O167   2.372       .  S
Zr137       O169   2.371       .  S
O138        H181   0.990       .  S
O139        H180   0.990       .  S
O139        H184   0.990       .  S
Zr140       O141   2.435       .  S
Zr140       O142   2.435       .  S
Zr140       O144   2.375       .  S
Zr140       O143   2.378       .  S
Zr140       O168   2.371       .  S
Zr140       O170   2.373       .  S
O141        H182   0.990       .  S
O141        H185   0.990       .  S
O142        H175   0.990       .  S
O143       Zr163   2.384       .  S
O144       Zr164   2.383       .  S
O144        H171   0.966       .  S
O145       Zr157   2.443       .  S
O145        C147   1.289       .  A
O146       Zr164   2.412       .  S
O146        C147   1.285       .  A
C147        C878   1.482       .  S
O148       Zr160   2.446       .  S
O148        C150   1.289       .  A
O149       Zr163   2.417       .  S
O149        C150   1.286       .  A
C150        C856   1.485       .  S
O151       Zr160   2.442       .  S
O151        C153   1.288       .  A
O152       Zr164   2.411       .  S
O152        C153   1.285       .  A
C153        C834   1.480       .  S
O154       Zr157   2.447       .  S
O154        C156   1.289       .  A
O155       Zr163   2.426       .  S
O155        C156   1.287       .  A
C156        C900   1.487       .  S
Zr157       O158   2.436       .  S
Zr157       O159   2.434       .  S
Zr157       O165   2.372       .  S
Zr157       O166   2.373       .  S
Zr157       O169   2.368       .  S
Zr157       O167   2.375       .  S
O158        H178   0.990       .  S
O158        H183   0.990       .  S
O159        H179   0.990       .  S
Zr160       O161   2.434       .  S
Zr160       O162   2.436       .  S
Zr160       O166   2.374       .  S
Zr160       O165   2.372       .  S
Zr160       O170   2.373       .  S
Zr160       O168   2.367       .  S
O161        H177   0.990       .  S
O162        H176   0.990       .  S
O162        H186   0.990       .  S
Zr163       O166   2.378       .  S
Zr163       O168   2.381       .  S
Zr163       O169   2.380       .  S
Zr164       O165   2.382       .  S
Zr164       O167   2.374       .  S
Zr164       O170   2.380       .  S
O165        H173   0.966       .  S
O168        H172   0.966       .  S
O169        H174   0.965       .  S
O187       Zr199   2.433       .  S
O187        C189   1.287       .  A
O188       Zr225   2.432       .  S
O188        C189   1.288       .  A
C189        C779   1.485       .  S
O190       Zr202   2.437       .  S
O190        C192   1.288       .  A
O191       Zr226   2.434   1_556  S
O191        C192   1.289       .  A
C192        C889   1.486       .  S
O193       Zr202   2.435       .  S
O193        C195   1.288       .  A
O194       Zr225   2.428   1_556  S
O194        C195   1.288       .  A
C195       C1032   1.485       .  S
O196       Zr199   2.440       .  S
O196        C198   1.289       .  A
O197       Zr226   2.424       .  S
O197        C198   1.286       .  A
C198        C812   1.484       .  S
Zr199       O200   2.434   1_554  S
Zr199       O201   2.435       .  S
Zr199       O205   2.367   1_554  S
Zr199       O206   2.364   1_554  S
Zr199       O229   2.367       .  S
Zr199       O231   2.369       .  S
O200        H243   0.990       .  S
O201        H242   0.990       .  S
O201        H246   0.990       .  S
Zr202       O203   2.438       .  S
Zr202       O204   2.434       .  S
Zr202       O206   2.370       .  S
Zr202       O205   2.368       .  S
Zr202       O230   2.372       .  S
Zr202       O232   2.372       .  S
O203        H244   0.990       .  S
O203        H247   0.990       .  S
O204        H237   0.990       .  S
O205       Zr225   2.377   1_556  S
O206       Zr226   2.380   1_556  S
O206        H233   0.966       .  S
O207       Zr219   2.437       .  S
O207        C209   1.288       .  A
O208       Zr226   2.425       .  S
O208        C209   1.287       .  A
C209        C867   1.482       .  S
O210       Zr222   2.469   1_554  S
O210        C212   1.294       .  A
O211       Zr225   2.420       .  S
O211        C212   1.287       .  A
C212        C735   1.494       .  S
O213       Zr222   2.470   1_554  S
O213        C215   1.293       .  A
O214       Zr226   2.413       .  S
O214        C215   1.286       .  A
C215        C757   1.491       .  S
O216       Zr219   2.447       .  S
O216        C218   1.289       .  A
O217       Zr225   2.427       .  S
O217        C218   1.287       .  A
C218        C999   1.485       .  S
Zr219       O220   2.434       .  S
Zr219       O221   2.435       .  S
Zr219       O227   2.371       .  S
Zr219       O228   2.370       .  S
Zr219       O231   2.368       .  S
Zr219       O229   2.376       .  S
O220        H240   0.990       .  S
O220        H245   0.990       .  S
O221        H241   0.990       .  S
Zr222       O223   2.434   1_556  S
Zr222       O224   2.434       .  S
Zr222       O228   2.383   1_556  S
Zr222       O227   2.376   1_556  S
Zr222       O232   2.374       .  S
Zr222       O230   2.380       .  S
O223        H239   0.990       .  S
O224        H238   0.990       .  S
O224        H248   0.990       .  S
Zr225       O228   2.389       .  S
Zr225       O230   2.390   1_554  S
Zr225       O231   2.385       .  S
Zr226       O227   2.389       .  S
Zr226       O229   2.381       .  S
Zr226       O232   2.381   1_554  S
O227        H235   0.966       .  S
O230        H234   0.966       .  S
O231        H236   0.966       .  S
O249       Zr261   2.436       .  S
O249        C251   1.288       .  A
O250       Zr287   2.433       .  S
O250        C251   1.288       .  A
C251        C713   1.486       .  S
O252       Zr264   2.441       .  S
O252        C254   1.288       .  A
O253       Zr288   2.433   1_556  S
O253        C254   1.289       .  A
C254       C1076   1.486       .  S
O255       Zr264   2.442       .  S
O255        C257   1.289       .  A
O256       Zr287   2.422   1_556  S
O256        C257   1.287       .  A
C257       C1285   1.484       .  S
O258       Zr261   2.436       .  S
O258        C260   1.288       .  A
O259       Zr288   2.433       .  S
O259        C260   1.288       .  A
C260        C790   1.487       .  S
Zr261       O262   2.434   1_554  S
Zr261       O263   2.437       .  S
Zr261       O267   2.366   1_554  S
Zr261       O268   2.363   1_554  S
Zr261       O291   2.365       .  S
Zr261       O293   2.372       .  S
O262        H305   0.990       .  S
O263        H304   0.990       .  S
O263        H308   0.990       .  S
Zr264       O265   2.437       .  S
Zr264       O266   2.434       .  S
Zr264       O268   2.370       .  S
Zr264       O267   2.368       .  S
Zr264       O292   2.372       .  S
Zr264       O294   2.375       .  S
O265        H306   0.990       .  S
O265        H309   0.990       .  S
O266        H299   0.990       .  S
O267       Zr287   2.380   1_556  S
O268       Zr288   2.380   1_556  S
O268        H295   0.966       .  S
O269       Zr281   2.426       .  S
O269        C271   1.286       .  A
O270       Zr288   2.429       .  S
O270        C271   1.288       .  A
C271       C1054   1.481       .  S
O272       Zr284   2.450       .  S
O272        C274   1.290       .  A
O273       Zr287   2.425       .  S
O273        C274   1.288       .  A
C274        C680   1.488       .  S
O275       Zr284   2.452   1_556  S
O275        C277   1.290       .  A
O276       Zr288   2.418       .  S
O276        C277   1.287   1_554  A
C277        C691   1.486       .  S
O278       Zr281   2.439       .  S
O278        C280   1.288       .  A
O279       Zr287   2.428       .  S
O279        C280   1.288       .  A
C280       C1274   1.485       .  S
Zr281       O282   2.435       .  S
Zr281       O283   2.433       .  S
Zr281       O289   2.373       .  S
Zr281       O290   2.366       .  S
Zr281       O293   2.365       .  S
Zr281       O291   2.371       .  S
O282        H302   0.990       .  S
O282        H307   0.990       .  S
O283        H303   0.990       .  S
Zr284       O285   2.434       .  S
Zr284       O286   2.435   1_554  S
Zr284       O290   2.377       .  S
Zr284       O289   2.379       .  S
Zr284       O294   2.378   1_554  S
Zr284       O292   2.378   1_554  S
O285        H301   0.990       .  S
O286        H300   0.990       .  S
O286        H310   0.990       .  S
Zr287       O290   2.382       .  S
Zr287       O292   2.389   1_554  S
Zr287       O293   2.381       .  S
Zr288       O289   2.392       .  S
Zr288       O291   2.379       .  S
Zr288       O294   2.387   1_554  S
O289        H297   0.966       .  S
O292        H296   0.966       .  S
O293        H298   0.966       .  S
O311       Zr323   2.433       .  S
O311        C313   1.287       .  A
O312       Zr349   2.432       .  S
O312        C313   1.288   1_556  A
C313        C647   1.484       .  S
O314       Zr326   2.440       .  S
O314        C316   1.289       .  A
O315       Zr350   2.418   1_556  S
O315        C316   1.286       .  A
C316       C1153   1.481       .  S
O317       Zr326   2.440       .  S
O317        C319   1.289       .  A
O318       Zr349   2.418       .  S
O318        C319   1.286       .  A
C319       C1208   1.479       .  S
O320       Zr323   2.439       .  S
O320        C322   1.289       .  A
O321       Zr350   2.429       .  S
O321        C322   1.288       .  A
C322        C625   1.485       .  S
Zr323       O324   2.435   1_554  S
Zr323       O325   2.435       .  S
Zr323       O329   2.369   1_554  S
Zr323       O330   2.367   1_554  S
Zr323       O353   2.364       .  S
Zr323       O355   2.366       .  S
O324        H367   0.990       .  S
O325        H366   0.990       .  S
O325        H370   0.990       .  S
Zr326       O327   2.436       .  S
Zr326       O328   2.435       .  S
Zr326       O330   2.371       .  S
Zr326       O329   2.371       .  S
Zr326       O354   2.369       .  S
Zr326       O356   2.372       .  S
O327        H368   0.990       .  S
O327        H371   0.990       .  S
O328        H361   0.990       .  S
O329       Zr349   2.380       .  S
O330       Zr350   2.386   1_556  S
O330        H357   0.966       .  S
O331       Zr343   2.425       .  S
O331        C333   1.286       .  A
O332       Zr350   2.429       .  S
O332        C333   1.288       .  A
C333       C1142   1.482       .  S
O334       Zr346   2.455   1_554  S
O334        C336   1.291       .  A
O335       Zr349   2.413   1_554  S
O335        C336   1.286       .  A
C336        C603   1.485       .  S
O337       Zr346   2.461       .  S
O337        C339   1.292       .  A
O338       Zr350   2.428       .  S
O338        C339   1.289   1_554  A
C339        C746   1.493       .  S
O340       Zr343   2.434       .  S
O340        C342   1.287       .  A
O341       Zr349   2.426   1_554  S
O341        C342   1.287       .  A
C342       C1175   1.483       .  S
Zr343       O344   2.432       .  S
Zr343       O345   2.433       .  S
Zr343       O351   2.368       .  S
Zr343       O352   2.364       .  S
Zr343       O355   2.365       .  S
Zr343       O353   2.367       .  S
O344        H364   0.990       .  S
O344        H369   0.990       .  S
O345        H365   0.991       .  S
Zr346       O347   2.434   1_556  S
Zr346       O348   2.435       .  S
Zr346       O352   2.381   1_556  S
Zr346       O351   2.381   1_556  S
Zr346       O356   2.372       .  S
Zr346       O354   2.374       .  S
O347        H363   0.990       .  S
O348        H362   0.990       .  S
O348        H372   0.990       .  S
Zr349       O352   2.383   1_556  S
Zr349       O354   2.390       .  S
Zr349       O355   2.377   1_556  S
Zr350       O351   2.386       .  S
Zr350       O353   2.374       .  S
Zr350       O356   2.385   1_554  S
O351        H359   0.967       .  S
O354        H358   0.967       .  S
O355        H360   0.966       .  S
O373       Zr385   2.443       .  S
O373        C375   1.290       .  A
O374       Zr411   2.425       .  S
O374        C375   1.287       .  A
C375       C1241   1.486       .  S
O376       Zr388   2.429       .  S
O376        C378   1.287       .  A
O377       Zr412   2.431       .  S
O377        C378   1.288       .  A
C378        C592   1.484       .  S
O379       Zr388   2.427       .  S
O379        C381   1.286       .  A
O380       Zr411   2.437       .  S
O380        C381   1.289       .  A
C381        C658   1.485       .  S
O382       Zr385   2.445       .  S
O382        C384   1.290       .  A
O383       Zr412   2.429       .  S
O383        C384   1.288       .  A
C384        C933   1.487       .  S
Zr385       O386   2.434       .  S
Zr385       O387   2.434       .  S
Zr385       O391   2.372       .  S
Zr385       O392   2.369       .  S
Zr385       O415   2.371       .  S
Zr385       O417   2.371       .  S
O386        H429   0.990       .  S
O387        H428   0.990       .  S
O387        H432   0.990       .  S
Zr388       O389   2.437       .  S
Zr388       O390   2.434   1_556  S
Zr388       O392   2.362       .  S
Zr388       O391   2.366       .  S
Zr388       O416   2.363   1_556  S
Zr388       O418   2.371   1_556  S
O389        H430   0.990       .  S
O389        H433   0.990       .  S
O390        H423   0.990       .  S
O391       Zr411   2.379       .  S
O392       Zr412   2.381       .  S
O392        H419   0.966       .  S
O393       Zr405   2.460       .  S
O393        C395   1.292       .  A
O394       Zr412   2.418       .  S
O394        C395   1.287   1_556  A
C395        C768   1.487       .  S
O396       Zr408   2.435       .  S
O396        C398   1.288       .  A
O397       Zr411   2.434   1_554  S
O397        C398   1.289       .  A
C398       C1230   1.486       .  S
O399       Zr408   2.433       .  S
O399        C401   1.287       .  A
O400       Zr412   2.428   1_554  S
O400        C401   1.288       .  A
C401        C911   1.483       .  S
O402       Zr405   2.462       .  S
O402        C404   1.292       .  A
O403       Zr411   2.411   1_554  S
O403        C404   1.286       .  A
C404        C669   1.487       .  S
Zr405       O406   2.435       .  S
Zr405       O407   2.437   1_554  S
Zr405       O413   2.377       .  S
Zr405       O414   2.381       .  S
Zr405       O417   2.378   1_554  S
Zr405       O415   2.378   1_554  S
O406        H426   0.990       .  S
O406        H431   0.990       .  S
O407        H427   0.990       .  S
Zr408       O409   2.434       .  S
Zr408       O410   2.435       .  S
Zr408       O414   2.372       .  S
Zr408       O413   2.369       .  S
Zr408       O418   2.372       .  S
Zr408       O416   2.367       .  S
O409        H425   0.990       .  S
O410        H424   0.990       .  S
O410        H434   0.990       .  S
Zr411       O414   2.387   1_556  S
Zr411       O416   2.377   1_556  S
Zr411       O417   2.391       .  S
Zr412       O413   2.387   1_556  S
Zr412       O415   2.385       .  S
Zr412       O418   2.380   1_556  S
O413        H421   0.966       .  S
O416        H420   0.966       .  S
O417        H422   0.966       .  S
O435       Zr447   2.436       .  S
O435        C437   1.288       .  A
O436       Zr473   2.438   1_556  S
O436        C437   1.288       .  A
C437        C636   1.490       .  S
O438       Zr450   2.431       .  S
O438        C440   1.286       .  A
O439       Zr474   2.435       .  S
O439        C440   1.289       .  A
C440        C988   1.485       .  S
O441       Zr450   2.437       .  S
O441        C443   1.288       .  A
O442       Zr473   2.416   1_556  S
O442        C443   1.285       .  A
C443       C1120   1.482       .  S
O444       Zr447   2.431   1_554  S
O444        C446   1.287       .  A
O445       Zr474   2.423       .  S
O445        C446   1.286   1_556  A
C446        C581   1.481       .  S
Zr447       O448   2.434       .  S
Zr447       O449   2.437   1_556  S
Zr447       O453   2.365       .  S
Zr447       O454   2.369       .  S
Zr447       O477   2.370   1_556  S
Zr447       O479   2.367   1_556  S
O448        H491   0.990       .  S
O449        H490   0.990       .  S
O449        H494   0.990       .  S
Zr450       O451   2.436       .  S
Zr450       O452   2.435       .  S
Zr450       O454   2.374       .  S
Zr450       O453   2.370       .  S
Zr450       O478   2.363       .  S
Zr450       O480   2.369       .  S
O451        H492   0.990       .  S
O451        H495   0.990       .  S
O452        H485   0.990       .  S
O453       Zr473   2.375   1_556  S
O454       Zr474   2.383       .  S
O454        H481   0.966       .  S
O455       Zr467   2.437       .  S
O455        C457   1.288       .  A
O456       Zr474   2.432   1_554  S
O456        C457   1.289       .  A
C457        C966   1.485       .  S
O458       Zr470   2.461   1_556  S
O458        C460   1.293       .  A
O459       Zr473   2.415       .  S
O459        C460   1.286   1_554  A
C460        C702   1.486       .  S
O461       Zr470   2.468   1_556  S
O461        C463   1.293       .  A
O462       Zr474   2.412       .  S
O462        C463   1.286       .  A
C463        C559   1.488       .  S
O464       Zr467   2.448       .  S
O464        C466   1.289       .  A
O465       Zr473   2.418       .  S
O465        C466   1.286       .  A
C466       C1087   1.481       .  S
Zr467       O468   2.433       .  S
Zr467       O469   2.437       .  S
Zr467       O475   2.374       .  S
Zr467       O476   2.371       .  S
Zr467       O479   2.370       .  S
Zr467       O477   2.374       .  S
O468        H488   0.990       .  S
O468        H493   0.990       .  S
O469        H489   0.990       .  S
Zr470       O471   2.434       .  S
Zr470       O472   2.436   1_554  S
Zr470       O476   2.382       .  S
Zr470       O475   2.374       .  S
Zr470       O480   2.373   1_554  S
Zr470       O478   2.381   1_554  S
O471        H487   0.990       .  S
O472        H486   0.990       .  S
O472        H496   0.990       .  S
Zr473       O476   2.386       .  S
Zr473       O478   2.390   1_554  S
Zr473       O479   2.379       .  S
Zr474       O475   2.387   1_556  S
Zr474       O477   2.381   1_556  S
Zr474       O480   2.382       .  S
O475        H483   0.966       .  S
O478        H482   0.967       .  S
O479        H484   0.966       .  S
O497       Zr509   2.433       .  S
O497        C499   1.287       .  A
O498       Zr535   2.419   1_556  S
O498        C499   1.286       .  A
C499       C1340   1.479       .  S
O500       Zr512   2.436       .  S
O500        C502   1.288       .  A
O501       Zr536   2.423       .  S
O501        C502   1.286       .  A
C502        C801   1.482       .  S
O503       Zr512   2.431       .  S
O503        C505   1.287       .  A
O504       Zr535   2.441       .  S
O504        C505   1.289       .  A
C505        C724   1.488       .  S
O506       Zr509   2.435       .  S
O506        C508   1.288       .  A
O507       Zr536   2.440   1_556  S
O507        C508   1.290       .  A
C508        C845   1.489       .  S
Zr509       O510   2.433       .  S
Zr509       O511   2.435       .  S
Zr509       O515   2.372       .  S
Zr509       O516   2.371       .  S
Zr509       O539   2.367       .  S
Zr509       O541   2.365       .  S
O510        H553   0.990       .  S
O511        H552   0.990       .  S
O511        H556   0.990       .  S
Zr512       O513   2.436   1_554  S
Zr512       O514   2.433       .  S
Zr512       O516   2.365   1_554  S
Zr512       O515   2.364   1_554  S
Zr512       O540   2.370       .  S
Zr512       O542   2.366       .  S
O513        H554   0.990       .  S
O513        H557   0.990       .  S
O514        H547   0.990       .  S
O515       Zr535   2.378   1_556  S
O516       Zr536   2.380   1_556  S
O516        H543   0.964       .  S
O517       Zr529   2.469       .  S
O517        C519   1.294       .  A
O518       Zr536   2.412   1_556  S
O518        C519   1.286       .  A
C519        C570   1.490       .  S
O520       Zr532   2.444       .  S
O520        C522   1.289       .  A
O521       Zr535   2.427       .  S
O521        C522   1.287       .  A
C522       C1307   1.485       .  S
O523       Zr532   2.434       .  S
O523        C525   1.287       .  A
O524       Zr536   2.427       .  S
O524        C525   1.288       .  A
C525        C823   1.483       .  S
O526       Zr529   2.459       .  S
O526        C528   1.292       .  A
O527       Zr535   2.416   1_556  S
O527        C528   1.287       .  A
C528        C614   1.483       .  S
Zr529       O530   2.436   1_556  S
Zr529       O531   2.436       .  S
Zr529       O537   2.377   1_556  S
Zr529       O538   2.381   1_556  S
Zr529       O541   2.377       .  S
Zr529       O539   2.374       .  S
O530        H550   0.990       .  S
O530        H555   0.990       .  S
O531        H551   0.990       .  S
Zr532       O533   2.436       .  S
Zr532       O534   2.435       .  S
Zr532       O538   2.366       .  S
Zr532       O537   2.373       .  S
Zr532       O542   2.372       .  S
Zr532       O540   2.369       .  S
O533        H549   0.990       .  S
O534        H548   0.990       .  S
O534        H558   0.990       .  S
Zr535       O538   2.384       .  S
Zr535       O540   2.377       .  S
Zr535       O541   2.390   1_554  S
Zr536       O537   2.391       .  S
Zr536       O539   2.381   1_554  S
Zr536       O542   2.377       .  S
O537        H545   0.966       .  S
O540        H544   0.966       .  S
O541        H546   0.964       .  S
C559        C560   1.409       .  A
C559        C564   1.408   1_556  A
C560        C561   1.397       .  A
C560        H573   1.083       .  S
C561        C562   1.399       .  A
C561        H574   1.084       .  S
C562        C563   1.402   1_556  A
C562        C565   1.445       .  S
C563        C564   1.404       .  A
C563        H575   1.083       .  S
C564        H576   1.083       .  S
C565        C566   1.209       .  T
C566        C567   1.445       .  S
C567        C568   1.402       .  A
C567        C572   1.398   1_556  A
C568        C569   1.405       .  A
C568        H577   1.083       .  S
C569        C570   1.409       .  A
C569        H578   1.083       .  S
C570        C571   1.410   1_556  A
C571        C572   1.396       .  A
C571        H579   1.083       .  S
C572        H580   1.084       .  S
C581        C582   1.409   1_554  A
C581        C586   1.407       .  A
C582        C583   1.402       .  A
C582        H595   1.083       .  S
C583        C584   1.400   1_556  A
C583        H596   1.083       .  S
C584        C585   1.397       .  A
C584        C587   1.437       .  S
C585        C586   1.392       .  A
C585        H597   1.084       .  S
C586        H598   1.083       .  S
C587        C588   1.204   1_554  T
C588        C589   1.437       .  S
C589        C590   1.397       .  A
C589        C594   1.400       .  A
C590        C591   1.393       .  A
C590        H599   1.084       .  S
C591        C592   1.409       .  A
C591        H600   1.083       .  S
C592        C593   1.409       .  A
C593        C594   1.402       .  A
C593        H601   1.083       .  S
C594        H602   1.083       .  S
C603        C604   1.408       .  A
C603        C608   1.409   1_554  A
C604        C605   1.395       .  A
C604        H617   1.083       .  S
C605        C606   1.398       .  A
C605        H618   1.084       .  S
C606        C607   1.401   1_554  A
C606        C609   1.441       .  S
C607        C608   1.402       .  A
C607        H619   1.083       .  S
C608        H620   1.083       .  S
C609        C610   1.207   1_565  T
C610        C611   1.441   1_554  S
C611        C612   1.401   1_556  A
C611        C616   1.398       .  A
C612        C613   1.403       .  A
C612        H621   1.083       .  S
C613        C614   1.408   1_554  A
C613        H622   1.083       .  S
C614        C615   1.408       .  A
C615        C616   1.396       .  A
C615        H623   1.083       .  S
C616        H624   1.084       .  S
C625        C626   1.409   1_554  A
C625        C630   1.408       .  A
C626        C627   1.403       .  A
C626        H639   1.083       .  S
C627        C628   1.401   1_556  A
C627        H640   1.083       .  S
C628        C629   1.399       .  A
C628        C631   1.443       .  S
C629        C630   1.395       .  A
C629        H641   1.084       .  S
C630        H642   1.083       .  S
C631        C632   1.208       .  T
C632        C633   1.443   1_554  S
C633        C634   1.397       .  A
C633        C638   1.403   1_556  A
C634        C635   1.394       .  A
C634        H643   1.084       .  S
C635        C636   1.409       .  A
C635        H644   1.083       .  S
C636        C637   1.410   1_556  A
C637        C638   1.406       .  A
C637        H645   1.083       .  S
C638        H646   1.083       .  S
C647        C648   1.409   1_554  A
C647        C652   1.408       .  A
C648        C649   1.402       .  A
C648        H661   1.083       .  S
C649        C650   1.400   1_556  A
C649        H662   1.083       .  S
C650        C651   1.398       .  A
C650        C653   1.439   1_554  S
C651        C652   1.394       .  A
C651        H663   1.084       .  S
C652        H664   1.083       .  S
C653        C654   1.205       .  T
C654        C655   1.439       .  S
C655        C656   1.396       .  A
C655        C660   1.401       .  A
C656        C657   1.392       .  A
C656        H665   1.084       .  S
C657        C658   1.409       .  A
C657        H666   1.083       .  S
C658        C659   1.409       .  A
C659        C660   1.404       .  A
C659        H667   1.083   1_556  S
C660        H668   1.083   1_556  S
C669        C670   1.409       .  A
C669        C674   1.409       .  A
C670        C671   1.403       .  A
C670        H683   1.083   1_554  S
C671        C672   1.401       .  A
C671        H684   1.083       .  S
C672        C673   1.398       .  A
C672        C675   1.442       .  S
C673        C674   1.395       .  A
C673        H685   1.084       .  S
C674        H686   1.083       .  S
C675        C676   1.207   1_565  T
C676        C677   1.442       .  S
C677        C678   1.397       .  A
C677        C682   1.402       .  A
C678        C679   1.395       .  A
C678        H687   1.084       .  S
C679        C680   1.408       .  A
C679        H688   1.083       .  S
C680        C681   1.411       .  A
C681        C682   1.404       .  A
C681        H689   1.083       .  S
C682        H690   1.083       .  S
C691        C692   1.408       .  A
C691        C696   1.410   1_556  A
C692        C693   1.393       .  A
C692        H705   1.083       .  S
C693        C694   1.397       .  A
C693        H706   1.084       .  S
C694        C695   1.402   1_556  A
C694        C697   1.441       .  S
C695        C696   1.404       .  A
C695        H707   1.083       .  S
C696        H708   1.083       .  S
C697        C698   1.207   1_655  T
C698        C699   1.442       .  S
C699        C700   1.401       .  A
C699        C704   1.398   1_556  A
C700        C701   1.403       .  A
C700        H709   1.083       .  S
C701        C702   1.409       .  A
C701        H710   1.083       .  S
C702        C703   1.409   1_556  A
C703        C704   1.396       .  A
C703        H711   1.083       .  S
C704        H712   1.084       .  S
C713        C714   1.410       .  A
C713        C718   1.408   1_554  A
C714        C715   1.404       .  A
C714        H727   1.083       .  S
C715        C716   1.402       .  A
C715        H728   1.083       .  S
C716        C717   1.398   1_554  A
C716        C719   1.442       .  S
C717        C718   1.394       .  A
C717        H729   1.084       .  S
C718        H730   1.083       .  S
C719        C720   1.208       .  T
C720        C721   1.443       .  S
C721        C722   1.397       .  A
C721        C726   1.402       .  A
C722        C723   1.394   1_554  A
C722        H731   1.084   1_554  S
C723        C724   1.409   1_556  A
C723        H732   1.083       .  S
C724        C725   1.409       .  A
C725        C726   1.405       .  A
C725        H733   1.083       .  S
C726        H734   1.083       .  S
C735        C736   1.410   1_554  A
C735        C740   1.411       .  A
C736        C737   1.397       .  A
C736        H749   1.083       .  S
C737        C738   1.398       .  A
C737        H750   1.084       .  S
C738        C739   1.403   1_556  A
C738        C741   1.448       .  S
C739        C740   1.407       .  A
C739        H751   1.083       .  S
C740        H752   1.083       .  S
C741        C742   1.211   1_655  T
C742        C743   1.448       .  S
C743        C744   1.402       .  A
C743        C748   1.400   1_556  A
C744        C745   1.405       .  A
C744        H753   1.083       .  S
C745        C746   1.411       .  A
C745        H754   1.083       .  S
C746        C747   1.409   1_556  A
C747        C748   1.398       .  A
C747        H755   1.083       .  S
C748        H756   1.084       .  S
C757        C758   1.409       .  A
C757        C762   1.410       .  A
C758        C759   1.405       .  A
C758        H771   1.083       .  S
C759        C760   1.402       .  A
C759        H772   1.083       .  S
C760        C761   1.399       .  A
C760        C763   1.446       .  S
C761        C762   1.398       .  A
C761        H773   1.084       .  S
C762        H774   1.083       .  S
C763        C764   1.210       .  T
C764        C765   1.446       .  S
C765        C766   1.398   1_554  A
C765        C770   1.403       .  A
C766        C767   1.396       .  A
C766        H775   1.084       .  S
C767        C768   1.408   1_556  A
C767        H776   1.083       .  S
C768        C769   1.409       .  A
C769        C770   1.405       .  A
C769        H777   1.083       .  S
C770        H778   1.083       .  S
C779        C780   1.409   1_554  A
C779        C784   1.409       .  A
C780        C781   1.393       .  A
C780        H793   1.083       .  S
C781        C782   1.397   1_556  A
C781        H794   1.084       .  S
C782        C783   1.402       .  A
C782        C785   1.441       .  S
C783        C784   1.404       .  A
C783        H795   1.083       .  S
C784        H796   1.083       .  S
C785        C786   1.207       .  T
C786        C787   1.441       .  S
C787        C788   1.402       .  A
C787        C792   1.396       .  A
C788        C789   1.405       .  A
C788        H797   1.083       .  S
C789        C790   1.410       .  A
C789        H798   1.083       .  S
C790        C791   1.409       .  A
C791        C792   1.392       .  A
C791        H799   1.083       .  S
C792        H800   1.084       .  S
C801        C802   1.407       .  A
C801        C806   1.409       .  A
C802        C803   1.393       .  A
C802        H815   1.083       .  S
C803        C804   1.397       .  A
C803        H816   1.084       .  S
C804        C805   1.400       .  A
C804        C807   1.438       .  S
C805        C806   1.402       .  A
C805        H817   1.083   1_554  S
C806        H818   1.083   1_554  S
C807        C808   1.205       .  T
C808        C809   1.438       .  S
C809        C810   1.400       .  A
C809        C814   1.398   1_554  A
C810        C811   1.402       .  A
C810        H819   1.083       .  S
C811        C812   1.410       .  A
C811        H820   1.083       .  S
C812        C813   1.407   1_554  A
C813        C814   1.394       .  A
C813        H821   1.083       .  S
C814        H822   1.084       .  S
C823        C824   1.408       .  A
C823        C828   1.409       .  A
C824        C825   1.399       .  A
C824        H837   1.083       .  S
C825        C826   1.400       .  A
C825        H838   1.083       .  S
C826        C827   1.397       .  A
C826        C829   1.437       .  S
C827        C828   1.395       .  A
C827        H839   1.084       .  S
C828        H840   1.083       .  S
C829        C830   1.204       .  T
C830        C831   1.436       .  S
C831        C832   1.399       .  A
C831        C836   1.398       .  A
C832        C833   1.397       .  A
C832        H841   1.084       .  S
C833        C834   1.408       .  A
C833        H842   1.083       .  S
C834        C835   1.408       .  A
C835        C836   1.397       .  A
C835        H843   1.083       .  S
C836        H844   1.084       .  S
C845        C846   1.409       .  A
C845        C850   1.410       .  A
C846        C847   1.403       .  A
C846        H859   1.083       .  S
C847        C848   1.402       .  A
C847        H860   1.083       .  S
C848        C849   1.397       .  A
C848        C851   1.442       .  S
C849        C850   1.396       .  A
C849        H861   1.084       .  S
C850        H862   1.083       .  S
C851        C852   1.207       .  T
C852        C853   1.442       .  S
C853        C854   1.400       .  A
C853        C858   1.399       .  A
C854        C855   1.399       .  A
C854        H863   1.083       .  S
C855        C856   1.409       .  A
C855        H864   1.083       .  S
C856        C857   1.409       .  A
C857        C858   1.398       .  A
C857        H865   1.083       .  S
C858        H866   1.083       .  S
C867        C868   1.408       .  A
C867        C872   1.409       .  A
C868        C869   1.399       .  A
C868        H881   1.083       .  S
C869        C870   1.400       .  A
C869        H882   1.083       .  S
C870        C871   1.398       .  A
C870        C873   1.438       .  S
C871        C872   1.397       .  A
C871        H883   1.084       .  S
C872        H884   1.083       .  S
C873        C874   1.205       .  T
C874        C875   1.437       .  S
C875        C876   1.399       .  A
C875        C880   1.398       .  A
C876        C877   1.397       .  A
C876        H885   1.084       .  S
C877        C878   1.408       .  A
C877        H886   1.083       .  S
C878        C879   1.409       .  A
C879        C880   1.397       .  A
C879        H887   1.083       .  S
C880        H888   1.084       .  S
C889        C890   1.409       .  A
C889        C894   1.409       .  A
C890        C891   1.396       .  A
C890        H903   1.083       .  S
C891        C892   1.397       .  A
C891        H904   1.084       .  S
C892        C893   1.401       .  A
C892        C895   1.441       .  S
C893        C894   1.402       .  A
C893        H905   1.083       .  S
C894        H906   1.083       .  S
C895        C896   1.207       .  T
C896        C897   1.442       .  S
C897        C898   1.399       .  A
C897        C902   1.400       .  A
C898        C899   1.399       .  A
C898        H907   1.083       .  S
C899        C900   1.409       .  A
C899        H908   1.083       .  S
C900        C901   1.409       .  A
C901        C902   1.400       .  A
C901        H909   1.083       .  S
C902        H910   1.084       .  S
C911        C912   1.408       .  A
C911        C916   1.409       .  A
C912        C913   1.400       .  A
C912        H925   1.083       .  S
C913        C914   1.400       .  A
C913        H926   1.083       .  S
C914        C915   1.397       .  A
C914        C917   1.439       .  S
C915        C916   1.395       .  A
C915        H927   1.084       .  S
C916        H928   1.083       .  S
C917        C918   1.205       .  T
C918        C919   1.439       .  S
C919        C920   1.400       .  A
C919        C924   1.398       .  A
C920        C921   1.399       .  A
C920        H929   1.084       .  S
C921        C922   1.409       .  A
C921        H930   1.083       .  S
C922        C923   1.409       .  A
C923        C924   1.398       .  A
C923        H931   1.083       .  S
C924        H932   1.084       .  S
C933        C934   1.409       .  A
C933        C938   1.409       .  A
C934        C935   1.398       .  A
C934        H947   1.083       .  S
C935        C936   1.399       .  A
C935        H948   1.084       .  S
C936        C937   1.400       .  A
C936        C939   1.441       .  S
C937        C938   1.401       .  A
C937        H949   1.083       .  S
C938        H950   1.083       .  S
C939        C940   1.207       .  T
C940        C941   1.440       .  S
C941        C942   1.400       .  A
C941        C946   1.399       .  A
C942        C943   1.399       .  A
C942        H951   1.083       .  S
C943        C944   1.406       .  A
C943        H952   1.083       .  S
C944        C945   1.410       .  A
C945        C946   1.398       .  A
C945        H953   1.083       .  S
C946        H954   1.084       .  S
C955        C956   1.407       .  A
C955        C960   1.410       .  A
C956        C957   1.398       .  A
C956        H969   1.083       .  S
C957        C958   1.400       .  A
C957        H970   1.083       .  S
C958        C959   1.400       .  A
C958        C961   1.441       .  S
C959        C960   1.400       .  A
C959        H971   1.084       .  S
C960        H972   1.083       .  S
C961        C962   1.207       .  T
C962        C963   1.441       .  S
C963        C964   1.400       .  A
C963        C968   1.399       .  A
C964        C965   1.400       .  A
C964        H973   1.083       .  S
C965        C966   1.408       .  A
C965        H974   1.083       .  S
C966        C967   1.409       .  A
C967        C968   1.398       .  A
C967        H975   1.083       .  S
C968        H976   1.084       .  S
C977        C978   1.409       .  A
C977        C982   1.409       .  A
C978        C979   1.399       .  A
C978        H991   1.083       .  S
C979        C980   1.400       .  A
C979        H992   1.084       .  S
C980        C981   1.399       .  A
C980        C983   1.441       .  S
C981        C982   1.399       .  A
C981        H993   1.084       .  S
C982        H994   1.083       .  S
C983        C984   1.207       .  T
C984        C985   1.441       .  S
C985        C986   1.400       .  A
C985        C990   1.398       .  A
C986        C987   1.400       .  A
C986        H995   1.083       .  S
C987        C988   1.408       .  A
C987        H996   1.083       .  S
C988        C989   1.410       .  A
C989        C990   1.397       .  A
C989        H997   1.083       .  S
C990        H998   1.084       .  S
C999       C1000   1.408       .  A
C999       C1004   1.408       .  A
C1000      C1001   1.401       .  A
C1000      H1013   1.083       .  S
C1001      C1002   1.400       .  A
C1001      H1014   1.083       .  S
C1002      C1003   1.399       .  A
C1002      C1005   1.442       .  S
C1003      C1004   1.398       .  A
C1003      H1015   1.084       .  S
C1004      H1016   1.083       .  S
C1005      C1006   1.207       .  T
C1006      C1007   1.441       .  S
C1007      C1008   1.400       .  A
C1007      C1012   1.400       .  A
C1008      C1009   1.399       .  A
C1008      H1017   1.084       .  S
C1009      C1010   1.408       .  A
C1009      H1018   1.083       .  S
C1010      C1011   1.409       .  A
C1011      C1012   1.399       .  A
C1011      H1019   1.083       .  S
C1012      H1020   1.083       .  S
C1021      C1022   1.407       .  A
C1021      C1026   1.406       .  A
C1022      C1023   1.397       .  A
C1022      H1035   1.083       .  S
C1023      C1024   1.398       .  A
C1023      H1036   1.083       .  S
C1024      C1025   1.401       .  A
C1024      C1027   1.438       .  S
C1025      C1026   1.398       .  A
C1025      H1037   1.084       .  S
C1026      H1038   1.083       .  S
C1027      C1028   1.205       .  T
C1028      C1029   1.438       .  S
C1029      C1030   1.397       .  A
C1029      C1034   1.400       .  A
C1030      C1031   1.395       .  A
C1030      H1039   1.084       .  S
C1031      C1032   1.409       .  A
C1031      H1040   1.083       .  S
C1032      C1033   1.409       .  A
C1033      C1034   1.401       .  A
C1033      H1041   1.083       .  S
C1034      H1042   1.083       .  S
C1043      C1044   1.408       .  A
C1043      C1048   1.409       .  A
C1044      C1045   1.397       .  A
C1044      H1057   1.083       .  S
C1045      C1046   1.399       .  A
C1045      H1058   1.084       .  S
C1046      C1047   1.398       .  A
C1046      C1049   1.436       .  S
C1047      C1048   1.397       .  A
C1047      H1059   1.084       .  S
C1048      H1060   1.083       .  S
C1049      C1050   1.204       .  T
C1050      C1051   1.436       .  S
C1051      C1052   1.400       .  A
C1051      C1056   1.397       .  A
C1052      C1053   1.399       .  A
C1052      H1061   1.083       .  S
C1053      C1054   1.408       .  A
C1053      H1062   1.083       .  S
C1054      C1055   1.409       .  A
C1055      C1056   1.395       .  A
C1055      H1063   1.083       .  S
C1056      H1064   1.084       .  S
C1065      C1066   1.407       .  A
C1065      C1070   1.409       .  A
C1066      C1067   1.400       .  A
C1066      H1079   1.083       .  S
C1067      C1068   1.400       .  A
C1067      H1080   1.083       .  S
C1068      C1069   1.399       .  A
C1068      C1071   1.441       .  S
C1069      C1070   1.399       .  A
C1069      H1081   1.084       .  S
C1070      H1082   1.083       .  S
C1071      C1072   1.207       .  T
C1072      C1073   1.442       .  S
C1073      C1074   1.400       .  A
C1073      C1078   1.399       .  A
C1074      C1075   1.400       .  A
C1074      H1083   1.083       .  S
C1075      C1076   1.408       .  A
C1075      H1084   1.083       .  S
C1076      C1077   1.409       .  A
C1077      C1078   1.398       .  A
C1077      H1085   1.083       .  S
C1078      H1086   1.084       .  S
C1087      C1088   1.408       .  A
C1087      C1092   1.406       .  A
C1088      C1089   1.400       .  A
C1088      H1101   1.083       .  S
C1089      C1090   1.401       .  A
C1089      H1102   1.083       .  S
C1090      C1091   1.400       .  A
C1090      C1093   1.444       .  S
C1091      C1092   1.399       .  A
C1091      H1103   1.083       .  S
C1092      H1104   1.083       .  S
C1093      C1094   1.209       .  T
C1094      C1095   1.445       .  S
C1095      C1096   1.401       .  A
C1095      C1100   1.399       .  A
C1096      C1097   1.402       .  A
C1096      H1105   1.083       .  S
C1097      C1098   1.409       .  A
C1097      H1106   1.083       .  S
C1098      C1099   1.411       .  A
C1099      C1100   1.401       .  A
C1099      H1107   1.083       .  S
C1100      H1108   1.084       .  S
C1109      C1110   1.409       .  A
C1109      C1114   1.406       .  A
C1110      C1111   1.398       .  A
C1110      H1123   1.083       .  S
C1111      C1112   1.399       .  A
C1111      H1124   1.084       .  S
C1112      C1113   1.400       .  A
C1112      C1115   1.438       .  S
C1113      C1114   1.398       .  A
C1113      H1125   1.084       .  S
C1114      H1126   1.083       .  S
C1115      C1116   1.205       .  T
C1116      C1117   1.438       .  S
C1117      C1118   1.398       .  A
C1117      C1122   1.400       .  A
C1118      C1119   1.395       .  A
C1118      H1127   1.084       .  S
C1119      C1120   1.408       .  A
C1119      H1128   1.083       .  S
C1120      C1121   1.409       .  A
C1121      C1122   1.399       .  A
C1121      H1129   1.083       .  S
C1122      H1130   1.083       .  S
C1131      C1132   1.409       .  A
C1131      C1136   1.407       .  A
C1132      C1133   1.396       .  A
C1132      H1145   1.083       .  S
C1133      C1134   1.398       .  A
C1133      H1146   1.084       .  S
C1134      C1135   1.400       .  A
C1134      C1137   1.437       .  S
C1135      C1136   1.399       .  A
C1135      H1147   1.084       .  S
C1136      H1148   1.083       .  S
C1137      C1138   1.205       .  T
C1138      C1139   1.437       .  S
C1139      C1140   1.397       .  A
C1139      C1144   1.400       .  A
C1140      C1141   1.396       .  A
C1140      H1149   1.084       .  S
C1141      C1142   1.410       .  A
C1141      H1150   1.083       .  S
C1142      C1143   1.407       .  A
C1143      C1144   1.399       .  A
C1143      H1151   1.083       .  S
C1144      H1152   1.083       .  S
C1153      C1154   1.409       .  A
C1153      C1158   1.408       .  A
C1154      C1155   1.400       .  A
C1154      H1167   1.083       .  S
C1155      C1156   1.400       .  A
C1155      H1168   1.083       .  S
C1156      C1157   1.398       .  A
C1156      C1159   1.438       .  S
C1157      C1158   1.395       .  A
C1157      H1169   1.084       .  S
C1158      H1170   1.083       .  S
C1159      C1160   1.205       .  T
C1160      C1161   1.439       .  S
C1161      C1162   1.400       .  A
C1161      C1166   1.398       .  A
C1162      C1163   1.399       .  A
C1162      H1171   1.084       .  S
C1163      C1164   1.407       .  A
C1163      H1172   1.083       .  S
C1164      C1165   1.411       .  A
C1165      C1166   1.398       .  A
C1165      H1173   1.083       .  S
C1166      H1174   1.084       .  S
C1175      C1176   1.409       .  A
C1175      C1180   1.409       .  A
C1176      C1177   1.401       .  A
C1176      H1189   1.083       .  S
C1177      C1178   1.401       .  A
C1177      H1190   1.083       .  S
C1178      C1179   1.397       .  A
C1178      C1181   1.439       .  S
C1179      C1180   1.394       .  A
C1179      H1191   1.084       .  S
C1180      H1192   1.083       .  S
C1181      C1182   1.206       .  T
C1182      C1183   1.439       .  S
C1183      C1184   1.400       .  A
C1183      C1188   1.398       .  A
C1184      C1185   1.400       .  A
C1184      H1193   1.084       .  S
C1185      C1186   1.408       .  A
C1185      H1194   1.083       .  S
C1186      C1187   1.410       .  A
C1187      C1188   1.397       .  A
C1187      H1195   1.083       .  S
C1188      H1196   1.084       .  S
C1197      C1198   1.409       .  A
C1197      C1202   1.407       .  A
C1198      C1199   1.398       .  A
C1198      H1211   1.083       .  S
C1199      C1200   1.399       .  A
C1199      H1212   1.084       .  S
C1200      C1201   1.399       .  A
C1200      C1203   1.437       .  S
C1201      C1202   1.397       .  A
C1201      H1213   1.084       .  S
C1202      H1214   1.083       .  S
C1203      C1204   1.204       .  T
C1204      C1205   1.436       .  S
C1205      C1206   1.398       .  A
C1205      C1210   1.400       .  A
C1206      C1207   1.396       .  A
C1206      H1215   1.084       .  S
C1207      C1208   1.407       .  A
C1207      H1216   1.083       .  S
C1208      C1209   1.408       .  A
C1209      C1210   1.398       .  A
C1209      H1217   1.083       .  S
C1210      H1218   1.084       .  S
C1219      C1220   1.410       .  A
C1219      C1224   1.407       .  A
C1220      C1221   1.397       .  A
C1220      H1233   1.083       .  S
C1221      C1222   1.398       .  A
C1221      H1234   1.084       .  S
C1222      C1223   1.400       .  A
C1222      C1225   1.439       .  S
C1223      C1224   1.398       .  A
C1223      H1235   1.083       .  S
C1224      H1236   1.083       .  S
C1225      C1226   1.206       .  T
C1226      C1227   1.440       .  S
C1227      C1228   1.398       .  A
C1227      C1232   1.400       .  A
C1228      C1229   1.397       .  A
C1228      H1237   1.084       .  S
C1229      C1230   1.410       .  A
C1229      H1238   1.083       .  S
C1230      C1231   1.409       .  A
C1231      C1232   1.401       .  A
C1231      H1239   1.083       .  S
C1232      H1240   1.083       .  S
C1241      C1242   1.409       .  A
C1241      C1246   1.408       .  A
C1242      C1243   1.401       .  A
C1242      H1255   1.083       .  S
C1243      C1244   1.400       .  A
C1243      H1256   1.083       .  S
C1244      C1245   1.399       .  A
C1244      C1247   1.442       .  S
C1245      C1246   1.398       .  A
C1245      H1257   1.084       .  S
C1246      H1258   1.083       .  S
C1247      C1248   1.207       .  T
C1248      C1249   1.442       .  S
C1249      C1250   1.401       .  A
C1249      C1254   1.398       .  A
C1250      C1251   1.400       .  A
C1250      H1259   1.083       .  S
C1251      C1252   1.408       .  A
C1251      H1260   1.083       .  S
C1252      C1253   1.411       .  A
C1253      C1254   1.399       .  A
C1253      H1261   1.083       .  S
C1254      H1262   1.084       .  S
C1263      C1264   1.410       .  A
C1263      C1268   1.408       .  A
C1264      C1265   1.400       .  A
C1264      H1277   1.083       .  S
C1265      C1266   1.400       .  A
C1265      H1278   1.084       .  S
C1266      C1267   1.400       .  A
C1266      C1269   1.444       .  S
C1267      C1268   1.400       .  A
C1267      H1279   1.083       .  S
C1268      H1280   1.083       .  S
C1269      C1270   1.208       .  T
C1270      C1271   1.443       .  S
C1271      C1272   1.399       .  A
C1271      C1276   1.401       .  A
C1272      C1273   1.399       .  A
C1272      H1281   1.084       .  S
C1273      C1274   1.409       .  A
C1273      H1282   1.083       .  S
C1274      C1275   1.408       .  A
C1275      C1276   1.400       .  A
C1275      H1283   1.083       .  S
C1276      H1284   1.083       .  S
C1285      C1286   1.409       .  A
C1285      C1290   1.408       .  A
C1286      C1287   1.401       .  A
C1286      H1299   1.083       .  S
C1287      C1288   1.401       .  A
C1287      H1300   1.083       .  S
C1288      C1289   1.398       .  A
C1288      C1291   1.442       .  S
C1289      C1290   1.397       .  A
C1289      H1301   1.084       .  S
C1290      H1302   1.083       .  S
C1291      C1292   1.208       .  T
C1292      C1293   1.442       .  S
C1293      C1294   1.400       .  A
C1293      C1298   1.399       .  A
C1294      C1295   1.400       .  A
C1294      H1303   1.083       .  S
C1295      C1296   1.408       .  A
C1295      H1304   1.083       .  S
C1296      C1297   1.411       .  A
C1297      C1298   1.399       .  A
C1297      H1305   1.083       .  S
C1298      H1306   1.084       .  S
C1307      C1308   1.408       .  A
C1307      C1312   1.408       .  A
C1308      C1309   1.399       .  A
C1308      H1321   1.083       .  S
C1309      C1310   1.400       .  A
C1309      H1322   1.084       .  S
C1310      C1311   1.400       .  A
C1310      C1313   1.441       .  S
C1311      C1312   1.399       .  A
C1311      H1323   1.084       .  S
C1312      H1324   1.083       .  S
C1313      C1314   1.207       .  T
C1314      C1315   1.441       .  S
C1315      C1316   1.399       .  A
C1315      C1320   1.400       .  A
C1316      C1317   1.399       .  A
C1316      H1325   1.084       .  S
C1317      C1318   1.410       .  A
C1317      H1326   1.083       .  S
C1318      C1319   1.408       .  A
C1319      C1320   1.399       .  A
C1319      H1327   1.083       .  S
C1320      H1328   1.083       .  S
C1329      C1330   1.407       .  A
C1329      C1334   1.409       .  A
C1330      C1331   1.397       .  A
C1330      H1343   1.083       .  S
C1331      C1332   1.399       .  A
C1331      H1344   1.084       .  S
C1332      C1333   1.397       .  A
C1332      C1335   1.434       .  S
C1333      C1334   1.396       .  A
C1333      H1345   1.084       .  S
C1334      H1346   1.083       .  S
C1335      C1336   1.203       .  T
C1336      C1337   1.434       .  S
C1337      C1338   1.400       .  A
C1337      C1342   1.397       .  A
C1338      C1339   1.399       .  A
C1338      H1347   1.083       .  S
C1339      C1340   1.408       .  A
C1339      H1348   1.083       .  S
C1340      C1341   1.408       .  A
C1341      C1342   1.393       .  A
C1341      H1349   1.083       .  S
C1342      H1350   1.084       .  S
