geometry optimzed in LAMMPS
_audit_creation_date              2020-11-30 
_audit_creation_method            'lammps2cif' 
_symmetry_space_group_name_H-M    'P1' 
_symmetry_Int_Tables_number       1 
_symmetry_cell_setting            triclinic 
loop_ 
_symmetry_equiv_pos_as_xyz 
  x,y,z 
_cell_length_a                    52.4684992 
_cell_length_b                    52.75307066850978 
_cell_length_c                    26.87529720846043 
_cell_angle_alpha                 89.33833934200767 
_cell_angle_beta                  89.50210158061431 
_cell_angle_gamma                 90.37097837063307 
loop_ 
_atom_site_label 
_atom_site_type_symbol 
_atom_site_fract_x 
_atom_site_fract_y 
_atom_site_fract_z 
_atom_site_charge 
N1          N  0.58628122  0.24286541  0.10538167    -0.26500
N2          N  0.60154530  0.25747876  0.07808858    -0.34300
C3          C  0.62181660  0.26421620  0.10506454     0.01900
C4          C  0.61941644  0.25322501  0.15164730     0.07900
C5          C  0.59654444  0.23982797  0.15084762    -0.05200
H6          H  0.63796741  0.27494004  0.09070224     0.08600
H7          H  0.58847862  0.22793962  0.18007902     0.09800
Cu8        Cu  0.59733154  0.26298551  0.00276606     0.44200
Cu9        Cu  0.55371717  0.22654994  0.07572009     0.42000
Cu10       Cu  0.55115442  0.22629721  0.93784234     0.43900
N11         N  0.59956389  0.25627154  0.92765480    -0.33800
N12         N  0.58374714  0.24136708  0.90338535    -0.28100
C13         C  0.59339159  0.23744805  0.85737239    -0.04200
C14         C  0.61629747  0.25071744  0.85305523     0.08000
C15         C  0.61938875  0.26245823  0.89811293     0.01800
H16         H  0.58482829  0.22525247  0.83000582     0.09500
H17         H  0.63580446  0.27330585  0.90985084     0.08500
N18         N  0.52104046  0.21585904  0.98521791    -0.35300
N19         N  0.52222722  0.21566553  0.03444354    -0.27500
C20         C  0.49933921  0.20887758  0.05327841    -0.02700
C21         C  0.48285729  0.20473770  0.01439276     0.05900
C22         C  0.49725231  0.20929704  0.97166736     0.04000
H23         H  0.49482271  0.20770486  0.09261362     0.09100
H24         H  0.49092626  0.20834900  0.93352902     0.07900
C25         C  0.73959284  0.22111732  0.50249330     0.46300
H26         H  0.72357269  0.20728613  0.50143258    -0.02700
C27         C  0.77628443  0.25447815  0.50331657     0.46300
H28         H  0.79183101  0.26881573  0.50334483    -0.02700
C29         C  0.76635252  0.20931881  0.49843046    -0.16400
C30         C  0.73839592  0.24034974  0.45977216    -0.16200
C31         C  0.73973283  0.23700476  0.54945053    -0.16600
C32         C  0.78573554  0.22708380  0.49881951    -0.16500
C33         C  0.75793030  0.25778568  0.45913533    -0.16100
C34         C  0.75914814  0.25467384  0.55069484    -0.16400
N35         N  0.80624166  0.40758718  0.89789212    -0.26500
N36         N  0.80555040  0.38559501  0.92204562    -0.34300
C37         C  0.80378635  0.36679253  0.88875855     0.01900
C38         C  0.80338907  0.37744719  0.84131622     0.07900
C39         C  0.80507503  0.40332083  0.84864642    -0.05200
H40         H  0.80309771  0.34686186  0.89856640     0.08600
H41         H  0.80525947  0.41801103  0.82022373     0.09800
Cu42       Cu  0.80742107  0.38188755  0.99932230     0.44200
Cu43       Cu  0.80854017  0.44248069  0.93289217     0.42000
Cu44       Cu  0.81541596  0.43977535  0.06735922     0.43900
N45         N  0.81059844  0.38297462  0.07661264    -0.33800
N46         N  0.81426279  0.40422030  0.10124968    -0.28100
C47         C  0.81556804  0.39882105  0.15022232    -0.04200
C48         C  0.81224180  0.37298581  0.15699110     0.08000
C49         C  0.80918749  0.36349299  0.10943175     0.01800
H50         H  0.81796638  0.41280121  0.17897925     0.09500
H51         H  0.80606786  0.34393724  0.09932884     0.08500
N52         N  0.81350223  0.47325997  0.02627928    -0.35300
N53         N  0.81089273  0.47437349  0.97739815    -0.27500
C54         C  0.80969099  0.49885836  0.96290293    -0.02700
C55         C  0.81162299  0.51382069  0.00480456     0.05900
C56         C  0.81400495  0.49694602  0.04414578     0.04000
H57         H  0.80732608  0.50514324  0.92478569     0.09100
H58         H  0.81574466  0.50155393  0.08310867     0.07900
N59         N  0.77298343  0.90510882  0.42192414    -0.26500
N60         N  0.77393850  0.88317014  0.44617593    -0.34300
C61         C  0.77630854  0.86442524  0.41285919     0.01900
C62         C  0.77671221  0.87514133  0.36545186     0.07900
C63         C  0.77440425  0.90089510  0.37272707    -0.05200
H64         H  0.77729302  0.84449688  0.42252310     0.08600
H65         H  0.77407033  0.91558022  0.34430329     0.09800
Cu66       Cu  0.77120932  0.87970573  0.52348873     0.44200
Cu67       Cu  0.77041004  0.94006896  0.45595393     0.42000
Cu68       Cu  0.76152400  0.93873833  0.58855057     0.43900
N69         N  0.76672025  0.88216244  0.60051006    -0.33800
N70         N  0.76250315  0.90372208  0.62370933    -0.28100
C71         C  0.76101970  0.89924356  0.67298421    -0.04200
C72         C  0.76480641  0.87370750  0.68152758     0.08000
C73         C  0.76825123  0.86336758  0.63467852     0.01800
H74         H  0.75844359  0.91372655  0.70072706     0.09500
H75         H  0.77202532  0.84378052  0.62594867     0.08500
N76         N  0.76380398  0.97188436  0.54697434    -0.35300
N77         N  0.76739796  0.97251555  0.49825439    -0.27500
C78         C  0.76761500  0.99681556  0.48244571    -0.02700
C79         C  0.76387617  0.01213447  0.52337858     0.05900
C80         C  0.76154716  0.99569288  0.56352432     0.04000
H81         H  0.76959562  0.00272118  0.44391654     0.09100
H82         H  0.75803097  0.00065250  0.60193073     0.07900
C83         C  0.80067106  0.75434912  0.02574688     0.46300
H84         H  0.78646680  0.76973164  0.02776057    -0.02700
C85         C  0.83451018  0.71857691  0.02120378     0.46300
H86         H  0.84878208  0.70316868  0.02014671    -0.02700
C87         C  0.78901872  0.72739283  0.02541427    -0.16400
C88         C  0.81777210  0.75576632  0.97860893    -0.16200
C89         C  0.81923116  0.75410388  0.07001724    -0.16600
C90         C  0.80694618  0.70862426  0.02258718    -0.16500
C91         C  0.83550603  0.73675922  0.97645112    -0.16100
C92         C  0.83710455  0.73521779  0.06707033    -0.16400
N93         N  0.99137329  0.69176858  0.63299712    -0.26500
N94         N  0.96918490  0.68573626  0.61349792    -0.34300
C95         C  0.95151722  0.68437407  0.64996031     0.01900
C96         C  0.96328843  0.68990743  0.69461941     0.07900
C97         C  0.98854494  0.69439300  0.68238037    -0.05200
H98         H  0.93144196  0.68110060  0.64369910     0.08600
H99         H  0.00348766  0.70045859  0.70714272     0.09800
Cu100      Cu  0.96374049  0.68388422  0.53748049     0.44200
Cu101      Cu  0.02328940  0.69942013  0.59024276     0.42000
Cu102      Cu  0.01663034  0.70309483  0.45539927     0.43900
N103        N  0.96071587  0.68937830  0.46140232    -0.33800
N104        N  0.97945061  0.69708378  0.43150502    -0.28100
C105        C  0.97003857  0.70090063  0.38553157    -0.04200
C106        C  0.94417946  0.69521838  0.38684892     0.08000
C107        C  0.93906052  0.68791009  0.43535931     0.01800
H108        H  0.98115442  0.70767988  0.35396227     0.09500
H109        H  0.92066163  0.68279445  0.45111222     0.08500
N110        N  0.05096483  0.70801265  0.49245146    -0.35300
N111        N  0.05286004  0.70719485  0.54148178    -0.27500
C112        C  0.07726015  0.71072392  0.55423036    -0.02700
C113        C  0.09159621  0.71355875  0.51137080     0.05900
C114        C  0.07438011  0.71180834  0.47265364     0.04000
H115        H  0.08419275  0.71023874  0.59202844     0.09100
H116        H  0.07851455  0.71280285  0.43318583     0.07900
N117        N  0.26280526  0.99881670  0.59893783    -0.26500
N118        N  0.26896632  0.02062478  0.57744252    -0.34300
C119        C  0.26812625  0.03908479  0.61130806     0.01900
C120        C  0.26119659  0.02831147  0.65673757     0.07900
C121        C  0.25787690  0.00274295  0.64746700    -0.05200
H122        H  0.27197417  0.05885637  0.60297376     0.08600
H123        H  0.25239632  0.98808785  0.67404075     0.09800
Cu124      Cu  0.27716382  0.02386868  0.50270047     0.44200
Cu125      Cu  0.26224943  0.96554208  0.55894246     0.42000
Cu126      Cu  0.27311977  0.96883442  0.42256072     0.43900
N127        N  0.27894848  0.02571046  0.42631763    -0.33800
N128        N  0.27615935  0.00632740  0.39600660    -0.28100
C129        C  0.27524292  0.01541362  0.34880992    -0.04200
C130        C  0.27781316  0.04165119  0.35023147     0.08000
C131        C  0.28026419  0.04732042  0.39977096     0.01800
H132        H  0.27256853  0.00387186  0.31624356     0.09500
H133        H  0.28165554  0.06601416  0.41572068     0.08500
N134        N  0.27104267  0.93508197  0.46472181    -0.35300
N135        N  0.26669517  0.93447268  0.51335473    -0.27500
C136        C  0.26758854  0.91040397  0.52985235    -0.02700
C137        C  0.27284763  0.89487441  0.49025492     0.05900
C138        C  0.27490643  0.91110866  0.44926198     0.04000
H139        H  0.26545641  0.90469791  0.56848546     0.09100
H140        H  0.27959637  0.90604603  0.41140030     0.07900
C141        C  0.23870282  0.19398897  0.98965485     0.46300
H142        H  0.22327286  0.20824124  0.98800996    -0.02700
C143        C  0.27517786  0.16095386  0.99355670     0.46300
H144        H  0.29048705  0.14652288  0.99446029    -0.02700
C145        C  0.26540690  0.20607229  0.99137213    -0.16400
C146        C  0.23691369  0.17611053  0.03535861    -0.16200
C147        C  0.23980545  0.17648078  0.94410992    -0.16600
C148        C  0.28482898  0.18861262  0.99352386    -0.16500
C149        C  0.25612780  0.15846960  0.03684394    -0.16100
C150        C  0.25901567  0.15897849  0.94684023    -0.16400
N151        N  0.08763155  0.21184681  0.39056837    -0.26500
N152        N  0.10769295  0.21849406  0.41720998    -0.34300
C153        C  0.12785027  0.22205877  0.38669571     0.01900
C154        C  0.12055828  0.21705651  0.33858996     0.07900
C155        C  0.09486359  0.21066525  0.34225887    -0.05200
H156        H  0.14680381  0.22702078  0.39897984     0.08600
H157        H  0.08237301  0.20543271  0.31220823     0.09800
Cu158      Cu  0.10921163  0.21981681  0.49446421     0.44200
Cu159      Cu  0.05118116  0.20460586  0.42110691     0.42000
Cu160      Cu  0.05139099  0.20601257  0.55544856     0.43900
N161        N  0.10687442  0.21456084  0.57115300    -0.33800
N162        N  0.08495403  0.20913146  0.59330194    -0.28100
C163        C  0.08874886  0.20503054  0.64200628    -0.04200
C164        C  0.11437128  0.20805600  0.65131912     0.08000
C165        C  0.12543370  0.21413116  0.60548066     0.01800
H166        H  0.07395805  0.19979084  0.66855143     0.09500
H167        H  0.14541493  0.21733428  0.59728773     0.08500
N168        N  0.01901221  0.20117144  0.51448906    -0.35300
N169        N  0.01813579  0.20032626  0.46538971    -0.27500
C170        C  0.99357171  0.19694024  0.45202331    -0.02700
C171        C  0.97865733  0.19559967  0.49511515     0.05900
C172        C  0.99549944  0.19836300  0.53361596     0.04000
H173        H  0.98711784  0.19575706  0.41400458     0.09100
H174        H  0.99097929  0.19854103  0.57297936     0.07900
N175        N  0.35107966  0.49990795  0.07402838    -0.26500
N176        N  0.34534788  0.52192989  0.05351333    -0.34300
C177        C  0.34720148  0.54014204  0.08761163     0.01900
C178        C  0.35421669  0.52899092  0.13227679     0.07900
C179        C  0.35683980  0.50345597  0.12220314    -0.05200
H180        H  0.34242005  0.55977452  0.08076585     0.08600
H181        H  0.36061936  0.48839126  0.14871367     0.09800
Cu182      Cu  0.33136796  0.52538892  0.98270220     0.44200
Cu183      Cu  0.34535294  0.46666817  0.03582088     0.42000
Cu184      Cu  0.31299281  0.47048377  0.91239416     0.43900
N185        N  0.31776702  0.52729929  0.91139877    -0.33800
N186        N  0.31142237  0.50764924  0.88393880    -0.28100
C187        C  0.30502175  0.51629411  0.83816646    -0.04200
C188        C  0.30742841  0.54259239  0.83770151     0.08000
C189        C  0.31538815  0.54871045  0.88469623     0.01800
H190        H  0.29935466  0.50437854  0.80765167     0.09500
H191        H  0.31988261  0.56744046  0.89823424     0.08500
N192        N  0.31897324  0.43708729  0.95383317    -0.35300
N193        N  0.33142750  0.43620844  0.99651322    -0.27500
C194        C  0.33248193  0.41213361  0.01283672    -0.02700
C195        C  0.31999378  0.39695107  0.97953674     0.05900
C196        C  0.31156895  0.41330390  0.94239940     0.04000
H197        H  0.34139390  0.40616400  0.04715213     0.09100
H198        H  0.30110992  0.40832952  0.90937174     0.07900
C199        C  0.29751854  0.65316151  0.46721225     0.46300
H200        H  0.28372049  0.63707651  0.46649220    -0.02700
C201        C  0.32966639  0.69087379  0.46841626     0.46300
H202        H  0.34340831  0.70692302  0.46890742    -0.02700
C203        C  0.28479817  0.67930665  0.46412592    -0.16400
C204        C  0.31372741  0.65365380  0.51417043    -0.16200
C205        C  0.31669384  0.65283038  0.42441998    -0.16600
C206        C  0.30176970  0.69930904  0.46478213    -0.16500
C207        C  0.33063692  0.67376683  0.51524137    -0.16100
C208        C  0.33338681  0.67301525  0.42376423    -0.16400
N209        N  0.48501028  0.70055540  0.86896950    -0.26500
N210        N  0.46306613  0.70171279  0.89345501    -0.34300
C211        C  0.44394681  0.69781618  0.86125353     0.01900
C212        C  0.45445053  0.69392185  0.81442661     0.07900
C213        C  0.48046142  0.69572035  0.82084984    -0.05200
H214        H  0.42397965  0.69726824  0.87155586     0.08600
H215        H  0.49507860  0.69355830  0.79260348     0.09800
Cu216      Cu  0.46004444  0.70737174  0.97000833     0.44200
Cu217      Cu  0.52044483  0.70548960  0.90084842     0.42000
Cu218      Cu  0.52023998  0.71714173  0.03179812     0.43900
N219        N  0.46342694  0.71210635  0.04666397    -0.33800
N220        N  0.48558171  0.71569162  0.06864275    -0.28100
C221        C  0.48186970  0.71719665  0.11800896    -0.04200
C222        C  0.45615922  0.71447718  0.12796462     0.08000
C223        C  0.44493489  0.71126662  0.08178905     0.01800
H224        H  0.49691180  0.71964690  0.14484942     0.09500
H225        H  0.42498787  0.70799149  0.07417147     0.08500
N226        N  0.55310658  0.71640211  0.98913196    -0.35300
N227        N  0.55330651  0.71212866  0.94080616    -0.27500
C228        C  0.57750641  0.71309660  0.92396153    -0.02700
C229        C  0.59325395  0.71805965  0.96370450     0.05900
C230        C  0.57711473  0.72009574  0.00448974     0.04000
H231        H  0.58321263  0.71041243  0.88559199     0.09100
H232        H  0.58223789  0.72424917  0.04244915     0.07900
C233        C  0.40299882  0.68412160  0.71466332     0.19500
C234        C  0.38076721  0.69725537  0.70219092    -0.18600
C235        C  0.36725302  0.69115603  0.65935384    -0.10800
C236        C  0.37560112  0.67154834  0.62822826     0.21800
C237        C  0.39752527  0.65801510  0.64124393    -0.20200
C238        C  0.41124743  0.66433804  0.68384053    -0.11000
C239        C  0.36096745  0.66407592  0.58363635    -0.15200
C240        C  0.34708047  0.68078905  0.55750824    -0.29000
C241        C  0.41628998  0.69061691  0.76140055    -0.03300
C242        C  0.44150681  0.68775773  0.76744063    -0.39800
H243        H  0.37380041  0.71227159  0.72576369     0.12900
H244        H  0.34991630  0.70139248  0.65144701     0.12600
H245        H  0.40404177  0.64253059  0.61837971     0.12000
H246        H  0.42786821  0.65328272  0.69322088     0.12200
H247        H  0.36187146  0.64449475  0.57169442     0.15000
H248        H  0.34844268  0.70084191  0.56575917     0.13800
H249        H  0.40503987  0.69892947  0.79107049     0.11400
H250        H  0.45326778  0.68130419  0.73671983     0.13400
C251        C  0.38093958  0.70230027  0.32803328     0.19500
C252        C  0.40725499  0.70699833  0.32680094    -0.18600
C253        C  0.42008336  0.71071221  0.28130559    -0.10800
C254        C  0.40667431  0.71000517  0.23597878     0.21800
C255        C  0.38014843  0.70653314  0.23774661    -0.20200
C256        C  0.36741090  0.70284458  0.28306195    -0.11000
C257        C  0.41917663  0.71221739  0.18599965    -0.15200
C258        C  0.44449687  0.71378597  0.17826498    -0.29000
C259        C  0.36789951  0.69632944  0.37616191    -0.03300
C260        C  0.34840820  0.67971661  0.37821836    -0.39800
H261        H  0.41802555  0.70705926  0.36101226     0.12900
H262        H  0.44042493  0.71380534  0.28235483     0.12600
H263        H  0.36919053  0.70631169  0.20376067     0.12000
H264        H  0.34692133  0.70032599  0.28271537     0.12200
H265        H  0.40680762  0.71188565  0.15381135     0.15000
H266        H  0.45753840  0.71428504  0.20922312     0.13800
H267        H  0.37530492  0.70445898  0.41005350     0.11400
H268        H  0.34283841  0.67051879  0.34407451     0.13400
C269        C  0.30534790  0.61486512  0.63665688     0.19500
C270        C  0.29444830  0.61979830  0.68332331    -0.18600
C271        C  0.29212755  0.60058906  0.71938819    -0.10800
C272        C  0.30115128  0.57599820  0.70990187     0.21800
C273        C  0.31133280  0.57082634  0.66271672    -0.20200
C274        C  0.31363318  0.59005315  0.62656501    -0.11000
C275        C  0.30128957  0.55581889  0.74914611    -0.15200
C276        C  0.30398467  0.56148366  0.79742517    -0.29000
C277        C  0.30861493  0.63619849  0.60032499    -0.03300
C278        C  0.31106360  0.63267615  0.55113070    -0.39800
H279        H  0.28775928  0.63863856  0.69199374     0.12900
H280        H  0.28334946  0.60513801  0.75471212     0.12600
H281        H  0.31840377  0.55208308  0.65441925     0.12000
H282        H  0.32268414  0.58551312  0.59151756     0.12200
H283        H  0.30157405  0.53611304  0.73787124     0.15000
H284        H  0.30570225  0.58117398  0.80823838     0.13800
H285        H  0.30817226  0.65544707  0.61428050     0.11400
H286        H  0.30865978  0.61384197  0.53605580     0.13400
C287        C  0.33610318  0.60418483  0.32547941     0.19500
C288        C  0.35703795  0.58823433  0.31744697    -0.18600
C289        C  0.35866648  0.57361349  0.27441214    -0.10800
C290        C  0.33939310  0.57497068  0.23849178     0.21800
C291        C  0.31834368  0.59060747  0.24693536    -0.20200
C292        C  0.31663399  0.60502952  0.28989509    -0.11000
C293        C  0.34123954  0.56214159  0.18999332    -0.15200
C294        C  0.35457829  0.54091607  0.18168230    -0.29000
C295        C  0.33634808  0.62161547  0.36833507    -0.03300
C296        C  0.31532528  0.63295517  0.38607915    -0.39800
H297        H  0.37245822  0.58755882  0.34396993     0.12900
H298        H  0.37543525  0.56217452  0.26849634     0.12600
H299        H  0.30338468  0.59213769  0.21953297     0.12000
H300        H  0.30059697  0.61764315  0.29373181     0.12200
H301        H  0.32989470  0.57008946  0.16010702     0.15000
H302        H  0.36434084  0.53129458  0.21182154     0.13800
H303        H  0.35466024  0.62601434  0.38491569     0.11400
H304        H  0.29653472  0.62706752  0.37409766     0.13400
C305        C  0.28987249  0.27562766  0.99053581     0.19500
C306        C  0.31429709  0.28651739  0.99239219    -0.18600
C307        C  0.31800178  0.31225170  0.98138846    -0.10800
C308        C  0.29722229  0.32773157  0.96884983     0.21800
C309        C  0.27283805  0.31683619  0.96645802    -0.20200
C310        C  0.26910230  0.29110742  0.97766998    -0.11000
C311        C  0.30045068  0.35534357  0.95922557    -0.15200
C312        C  0.31726329  0.36921163  0.98485894    -0.29000
C313        C  0.28680677  0.24817839  0.00242042    -0.03300
C314        C  0.26825265  0.23383658  0.98278724    -0.39800
H315        H  0.33061172  0.27500309  0.00191107     0.12900
H316        H  0.33715728  0.31996019  0.98240834     0.12600
H317        H  0.25654233  0.32841416  0.95715354     0.12000
H318        H  0.24987290  0.28361730  0.97718274     0.12200
H319        H  0.28748266  0.36468899  0.93373374     0.15000
H320        H  0.32866656  0.36012491  0.01340781     0.13800
H321        H  0.30084364  0.23942393  0.02644398     0.11400
H322        H  0.25398529  0.24256588  0.95934049     0.13400
C323        C  0.15147995  0.20467288  0.20965129     0.19500
C324        C  0.15073916  0.18388653  0.17747919    -0.18600
C325        C  0.16850690  0.18171077  0.13850962    -0.10800
C326        C  0.18729349  0.20052558  0.13048233     0.21800
C327        C  0.18747484  0.22173109  0.16159091    -0.20200
C328        C  0.16989420  0.22377597  0.20083843    -0.11000
C329        C  0.20675683  0.19892900  0.08988855    -0.15200
C330        C  0.21531088  0.17689147  0.07153580    -0.29000
C331        C  0.13273946  0.20592109  0.25167183    -0.03300
C332        C  0.13787352  0.21767141  0.29469773    -0.39800
H333        H  0.13655508  0.16907801  0.18294143     0.12900
H334        H  0.16725223  0.16545491  0.11446378     0.12600
H335        H  0.20149268  0.23667471  0.15585699     0.12000
H336        H  0.17061067  0.24048615  0.22375619     0.12200
H337        H  0.21595265  0.21646219  0.07756418     0.15000
H338        H  0.20792601  0.15904019  0.08620650     0.13800
H339        H  0.11504428  0.19527916  0.24851328     0.11400
H340        H  0.15634706  0.22661041  0.29970551     0.13400
C341        C  0.16372957  0.20520503  0.75722188     0.19500
C342        C  0.19041705  0.20440103  0.75816271    -0.18600
C343        C  0.20326923  0.20082076  0.80288813    -0.10800
C344        C  0.18966789  0.19777298  0.84795307     0.21800
C345        C  0.16301830  0.19941265  0.84743594    -0.20200
C346        C  0.15010449  0.20304702  0.80257905    -0.11000
C347        C  0.20291595  0.19322456  0.89582819    -0.15200
C348        C  0.22522514  0.18093731  0.89771935    -0.29000
C349        C  0.15117018  0.20897259  0.70829519    -0.03300
C350        C  0.12634823  0.20434095  0.70032539    -0.39800
H351        H  0.20142222  0.20649157  0.72405630     0.12900
H352        H  0.22388743  0.20077700  0.80197388     0.12600
H353        H  0.15214808  0.19761023  0.88176708     0.12000
H354        H  0.12958917  0.20446018  0.80404396     0.12200
H355        H  0.19350447  0.19891664  0.93000489     0.15000
H356        H  0.23326024  0.17356937  0.86356551     0.13800
H357        H  0.16308836  0.21525833  0.67727158     0.11400
H358        H  0.11410979  0.19735890  0.73017107     0.13400
C359        C  0.25578024  0.11710444  0.15716089     0.19500
C360        C  0.25667501  0.12259454  0.20798030    -0.18600
C361        C  0.25994504  0.10330691  0.24327272    -0.10800
C362        C  0.26258871  0.07789587  0.22852447     0.21800
C363        C  0.26065962  0.07223469  0.17781974    -0.20200
C364        C  0.25728594  0.09158509  0.14240720    -0.11000
C365        C  0.26639735  0.05695305  0.26534489    -0.15200
C366        C  0.27649293  0.06101217  0.31035411    -0.29000
C367        C  0.25271083  0.13851076  0.12126407    -0.03300
C368        C  0.25839240  0.13693038  0.07258329    -0.39800
H369        H  0.25493778  0.14196351  0.22051351     0.12900
H370        H  0.25995084  0.10848583  0.28206378     0.12600
H371        H  0.26194487  0.05279486  0.16553492     0.12000
H372        H  0.25560394  0.08634383  0.10380524     0.12200
H373        H  0.26061833  0.03788444  0.25531471     0.15000
H374        H  0.28306103  0.07982598  0.32011498     0.13800
H375        H  0.24695093  0.15666564  0.13612725     0.11400
H376        H  0.26696906  0.11983994  0.05822315     0.13400
C377        C  0.25392616  0.10933727  0.84355252     0.19500
C378        C  0.23864750  0.08786352  0.83571842    -0.18600
C379        C  0.24240095  0.07286432  0.79374092    -0.10800
C380        C  0.26142747  0.07931525  0.75850542     0.21800
C381        C  0.27664359  0.10083329  0.76640367    -0.20200
C382        C  0.27303962  0.11566362  0.80850743    -0.11000
C383        C  0.26494434  0.06527451  0.71149426    -0.15200
C384        C  0.25761018  0.04107642  0.70490409    -0.29000
C385        C  0.24816622  0.12596388  0.88615884    -0.03300
C386        C  0.26575145  0.14091457  0.90718209    -0.39800
H387        H  0.22353423  0.08288425  0.86184377     0.12900
H388        H  0.22980216  0.05685559  0.78827406     0.12600
H389        H  0.29117337  0.10641257  0.73947064     0.12000
H390        H  0.28461723  0.13255664  0.81249230     0.12200
H391        H  0.27466259  0.07531738  0.68127733     0.15000
H392        H  0.24935503  0.03008395  0.73545587     0.13800
H393        H  0.22874646  0.12606729  0.90063741     0.11400
H394        H  0.28573384  0.13925048  0.89701189     0.13400
C395        C  0.30000073  0.77247503  0.47345263     0.19500
C396        C  0.30497994  0.78927433  0.51231238    -0.18600
C397        C  0.29941507  0.81507125  0.50737662    -0.10800
C398        C  0.28886330  0.82475257  0.46308849     0.21800
C399        C  0.28446555  0.80804733  0.42374235    -0.20200
C400        C  0.28980751  0.78215025  0.42888140    -0.11000
C401        C  0.28323166  0.85224853  0.45634187    -0.15200
C402        C  0.27729271  0.86727436  0.49478252    -0.29000
C403        C  0.30675036  0.74529329  0.47997195    -0.03300
C404        C  0.29470685  0.72631009  0.45660949    -0.39800
H405        H  0.31321766  0.78239938  0.54670568     0.12900
H406        H  0.30399120  0.82741608  0.53793673     0.12600
H407        H  0.27678560  0.81505176  0.38895626     0.12000
H408        H  0.28647026  0.76990505  0.39755392     0.12200
H409        H  0.28345465  0.86011350  0.41881416     0.15000
H410        H  0.27557813  0.85913921  0.53194665     0.13800
H411        H  0.32125722  0.74063922  0.50716050     0.11400
H412        H  0.27871474  0.73043208  0.43257224     0.13400
C413        C  0.21492339  0.70221012  0.47566784     0.19500
C414        C  0.20260698  0.72023129  0.50526125    -0.18600
C415        C  0.17625713  0.72343368  0.50274967    -0.10800
C416        C  0.16159477  0.70854096  0.47056804     0.21800
C417        C  0.17391196  0.69115525  0.43971380    -0.20200
C418        C  0.20028630  0.68794126  0.44216066    -0.11000
C419        C  0.13342972  0.71024752  0.46913844    -0.15200
C420        C  0.11956945  0.71567825  0.50979658    -0.29000
C421        C  0.24299202  0.69952164  0.48043325    -0.03300
C422        C  0.25677996  0.68126279  0.45862832    -0.39800
H423        H  0.21340202  0.73183688  0.53066359     0.12900
H424        H  0.16747348  0.73763596  0.52589568     0.12600
H425        H  0.16301970  0.67966714  0.41425950     0.12000
H426        H  0.20885142  0.67435899  0.41749879     0.12200
H427        H  0.12383905  0.70436563  0.43549736     0.15000
H428        H  0.12898782  0.71945481  0.54475427     0.13800
H429        H  0.25268094  0.71290237  0.50427273     0.11400
H430        H  0.24755075  0.66608555  0.43875992     0.13400
C431        C  0.66342722  0.72584367  0.00197480     0.19500
C432        C  0.67765511  0.71681795  0.04234700    -0.18600
C433        C  0.70406640  0.72026998  0.04339867    -0.10800
C434        C  0.71670067  0.73312383  0.00416742     0.21800
C435        C  0.70241774  0.74263142  0.96431223    -0.20200
C436        C  0.67604651  0.73893668  0.96299043    -0.11000
C437        C  0.74451891  0.73793901  0.00471429    -0.15200
C438        C  0.76116887  0.72227672  0.02666312    -0.29000
C439        C  0.63538171  0.72238360  0.00296306    -0.03300
C440        C  0.62120552  0.72115307  0.96161800    -0.39800
H441        H  0.66828438  0.70705865  0.07320022     0.12900
H442        H  0.71441343  0.71341220  0.07544320     0.12600
H443        H  0.71171787  0.75295492  0.93407803     0.12000
H444        H  0.66558782  0.74690382  0.93208917     0.12200
H445        H  0.75158582  0.75419753  0.98369295     0.15000
H446        H  0.75438965  0.70473062  0.04374495     0.13800
H447        H  0.62627618  0.71987223  0.03913592     0.11400
H448        H  0.63023137  0.72181702  0.92513293     0.13400
C449        C  0.90951700  0.71342072  0.26490439     0.19500
C450        C  0.91718196  0.72201920  0.21740458    -0.18600
C451        C  0.89920261  0.72697114  0.18044860    -0.10800
C452        C  0.87302098  0.72334299  0.19021790     0.21800
C453        C  0.86531758  0.71505273  0.23776380    -0.20200
C454        C  0.88324483  0.71014943  0.27470494    -0.11000
C455        C  0.85309546  0.72900947  0.15281913    -0.15200
C456        C  0.85759118  0.73021105  0.10353682    -0.29000
C457        C  0.92939673  0.70924343  0.30345022    -0.03300
C458        C  0.92487526  0.69757160  0.34746081    -0.39800
H459        H  0.93719109  0.72513176  0.20892933     0.12900
H460        H  0.90592780  0.73415479  0.14481848     0.12600
H461        H  0.84526234  0.71248077  0.24651452     0.12000
H462        H  0.87612267  0.70437435  0.31091313     0.12200
H463        H  0.83366730  0.73135968  0.16627818     0.15000
H464        H  0.87609307  0.72508569  0.08862032     0.13800
H465        H  0.94847752  0.71634256  0.29534637     0.11400
H466        H  0.90621544  0.68984213  0.35639503     0.13400
C467        C  0.88651308  0.71073805  0.88680565     0.19500
C468        C  0.91309793  0.70841660  0.88756258    -0.18600
C469        C  0.92651549  0.70149070  0.84468420    -0.10800
C470        C  0.91344600  0.69657831  0.80017606     0.21800
C471        C  0.88675335  0.69796961  0.80019082    -0.20200
C472        C  0.87339725  0.70495190  0.84293795    -0.11000
C473        C  0.92658581  0.69007903  0.75284769    -0.15200
C474        C  0.95156093  0.69401320  0.74395870    -0.29000
C475        C  0.87278683  0.71831748  0.93261729    -0.03300
C476        C  0.85082839  0.73123875  0.93116473    -0.39800
H477        H  0.92353242  0.71225335  0.92129214     0.12900
H478        H  0.94698318  0.69985421  0.84702944     0.12600
H479        H  0.87615203  0.69387501  0.76676857     0.12000
H480        H  0.85279997  0.70550788  0.84163878     0.12200
H481        H  0.91476356  0.68297645  0.72305292     0.15000
H482        H  0.96382295  0.70161505  0.77246149     0.13800
H483        H  0.88143232  0.71387618  0.96819714     0.11400
H484        H  0.84346522  0.73745267  0.89548794     0.13400
C485        C  0.79056663  0.82575638  0.26378016     0.19500
C486        C  0.80913547  0.80691117  0.25899373    -0.18600
C487        C  0.81166865  0.79336925  0.21483630    -0.10800
C488        C  0.79545410  0.79824802  0.17442515     0.21800
C489        C  0.77662594  0.81685719  0.17940488    -0.20200
C490        C  0.77430123  0.83065265  0.22344993    -0.11000
C491        C  0.79662104  0.78294756  0.12829532    -0.15200
C492        C  0.81835717  0.77249979  0.11159474    -0.29000
C493        C  0.78781449  0.83880277  0.31226629    -0.03300
C494        C  0.77881180  0.86248101  0.31676176    -0.39800
H495        H  0.82164026  0.80251371  0.28973727     0.12900
H496        H  0.82578883  0.77853677  0.21316096     0.12600
H497        H  0.76359929  0.82062963  0.14920083     0.12000
H498        H  0.75928397  0.84453520  0.22631429     0.12200
H499        H  0.77892269  0.77966880  0.10871295     0.15000
H500        H  0.83602490  0.77642775  0.13077103     0.13800
H501        H  0.79457733  0.82891329  0.34523701     0.11400
H502        H  0.77390704  0.87342718  0.28379938     0.13400
C503        C  0.79039020  0.80082682  0.87813800     0.19500
C504        C  0.77117373  0.81911716  0.87426322    -0.18600
C505        C  0.76691121  0.83186288  0.82907634    -0.10800
C506        C  0.78171869  0.82631998  0.78664251     0.21800
C507        C  0.80067063  0.80781337  0.79045708    -0.20200
C508        C  0.80498407  0.79519492  0.83548788    -0.11000
C509        C  0.77754092  0.83853053  0.73726933    -0.15200
C510        C  0.76667198  0.86133337  0.73100462    -0.29000
C511        C  0.79344791  0.78638656  0.92559733    -0.03300
C512        C  0.81533938  0.77485624  0.93768724    -0.39800
H513        H  0.75928668  0.82339542  0.90620530     0.12900
H514        H  0.75161227  0.84547358  0.82732446     0.12600
H515        H  0.81210119  0.80291433  0.75824018     0.12000
H516        H  0.81921573  0.78045751  0.83607940     0.12200
H517        H  0.78517449  0.82893922  0.70491223     0.15000
H518        H  0.76053738  0.87213249  0.76299937     0.13800
H519        H  0.77691042  0.78448543  0.94975779     0.11400
H520        H  0.83207189  0.77824559  0.91451632     0.13400
C521        C  0.80912399  0.58548047  0.97400303     0.19500
C522        C  0.81882640  0.60052824  0.93475577    -0.18600
C523        C  0.82004666  0.62690400  0.93899830    -0.10800
C524        C  0.81107651  0.63882258  0.98212274     0.21800
C525        C  0.80058662  0.62382560  0.02083588    -0.20200
C526        C  0.79952300  0.59745300  0.01672743    -0.11000
C527        C  0.81470388  0.66660230  0.98686749    -0.15200
C528        C  0.80090907  0.68123878  0.01756058    -0.29000
C529        C  0.80934884  0.55743563  0.96931009    -0.03300
C530        C  0.81081998  0.54170571  0.00894105    -0.39800
H531        H  0.82611663  0.59180607  0.90127138     0.12900
H532        H  0.82828734  0.63803277  0.90869212     0.12600
H533        H  0.79388202  0.63225059  0.05500145     0.12000
H534        H  0.79118478  0.58655148  0.04714053     0.12200
H535        H  0.82925150  0.67547857  0.96331455     0.15000
H536        H  0.78478459  0.67333103  0.03805126     0.13800
H537        H  0.80961741  0.54964706  0.93209785     0.11400
H538        H  0.81211649  0.54937409  0.04612005     0.13400
C539        C  0.90606719  0.19255195  0.47360771     0.19500
C540        C  0.89038001  0.20457149  0.43874843    -0.18600
C541        C  0.86430523  0.20729914  0.44815652    -0.10800
C542        C  0.85331618  0.19791718  0.49272327     0.21800
C543        C  0.86865767  0.18435082  0.52604649    -0.20200
C544        C  0.89480593  0.18174832  0.51676394    -0.11000
C545        C  0.82596656  0.20193292  0.50505262    -0.15200
C546        C  0.81313034  0.22228350  0.48834035    -0.29000
C547        C  0.93408628  0.19238700  0.46453347    -0.03300
C548        C  0.95081456  0.19281550  0.50203711    -0.39800
H549        H  0.89845986  0.21257282  0.40477395     0.12900
H550        H  0.85284656  0.21684379  0.42050217     0.12600
H551        H  0.86052827  0.17634017  0.55996393     0.12000
H552        H  0.90612120  0.17140873  0.54355192     0.12200
H553        H  0.81659120  0.18858462  0.53037265     0.15000
H554        H  0.82333025  0.23714343  0.46808414     0.13800
H555        H  0.94101230  0.19427729  0.42646734     0.11400
H556        H  0.94389033  0.19253353  0.54021443     0.13400
C557        C  0.75683311  0.13627191  0.49695407     0.19500
C558        C  0.73994153  0.11975067  0.52220539    -0.18600
C559        C  0.74244937  0.09352493  0.51839159    -0.10800
C560        C  0.76199815  0.08314752  0.48912029     0.21800
C561        C  0.77818665  0.09950688  0.46194894    -0.20200
C562        C  0.77576787  0.12582294  0.46589733    -0.11000
C563        C  0.76566654  0.05535700  0.48618948    -0.15200
C564        C  0.76085410  0.03986639  0.52526152    -0.29000
C565        C  0.75389129  0.16400801  0.50494917    -0.03300
C566        C  0.77012275  0.18198125  0.48772023    -0.39800
H567        H  0.72487351  0.12715457  0.54560123     0.12900
H568        H  0.72900549  0.08141857  0.53829852     0.12600
H569        H  0.79310421  0.09190009  0.43846237     0.12000
H570        H  0.78887687  0.13760793  0.44465214     0.12200
H571        H  0.77356605  0.04770871  0.45207220     0.15000
H572        H  0.75479357  0.04774899  0.56055356     0.13800
H573        H  0.73806049  0.16975647  0.52842658     0.11400
H574        H  0.78667981  0.17684981  0.46598317     0.13400
C575        C  0.79586539  0.32387874  0.26037535     0.19500
C576        C  0.77392574  0.30900927  0.26832792    -0.18600
C577        C  0.76964983  0.29657188  0.31389259    -0.10800
C578        C  0.78746679  0.29845392  0.35260224     0.21800
C579        C  0.80976127  0.31283988  0.34422032    -0.20200
C580        C  0.81384828  0.32564689  0.29876035    -0.11000
C581        C  0.78420550  0.28390837  0.40017934    -0.15200
C582        C  0.76119291  0.27703253  0.41859673    -0.29000
C583        C  0.79961015  0.33662107  0.21115269    -0.03300
C584        C  0.81107811  0.35937095  0.20551719    -0.39800
H585        H  0.75996494  0.30705092  0.23912649     0.12900
H586        H  0.75273263  0.28488087  0.31796037     0.12600
H587        H  0.82406820  0.31413197  0.37292047     0.12000
H588        H  0.83129979  0.33641570  0.29332349     0.12200
H589        H  0.80131655  0.27761529  0.41897263     0.15000
H590        H  0.74412378  0.28371439  0.40029796     0.13800
H591        H  0.79070466  0.32795730  0.17914278     0.11400
H592        H  0.81813211  0.36922045  0.23793093     0.13400
C593        C  0.78609573  0.29913346  0.65159236     0.19500
C594        C  0.80342642  0.31948411  0.65379088    -0.18600
C595        C  0.80620402  0.33330933  0.69776858    -0.10800
C596        C  0.79198968  0.32666619  0.74073436     0.21800
C597        C  0.77516726  0.30593454  0.73874273    -0.20200
C598        C  0.77211854  0.29241606  0.69475255    -0.11000
C599        C  0.79492683  0.34000070  0.78890088    -0.15200
C600        C  0.80164849  0.36457471  0.79266097    -0.29000
C601        C  0.78385861  0.28411946  0.60516063    -0.03300
C602        C  0.76172991  0.27313505  0.59200683    -0.39800
H603        H  0.81477862  0.32471890  0.62137580     0.12900
H604        H  0.81990442  0.34872178  0.69834862     0.12600
H605        H  0.76429852  0.30014779  0.77145635     0.12000
H606        H  0.75928540  0.27627371  0.69505695     0.12200
H607        H  0.78995045  0.32940446  0.82253473     0.15000
H608        H  0.80492238  0.37595823  0.75927512     0.13800
H609        H  0.80087891  0.28153520  0.58263251     0.11400
H610        H  0.74484440  0.27699435  0.61410627     0.13400
C611        C  0.65954641  0.23910512  0.26805557     0.19500
C612        C  0.65412688  0.23297563  0.31789473    -0.18600
C613        C  0.67353639  0.23248417  0.35315989    -0.10800
C614        C  0.69892977  0.23811940  0.33913775     0.21800
C615        C  0.70443756  0.24333011  0.28888643    -0.20200
C616        C  0.68502607  0.24379471  0.25366746    -0.11000
C617        C  0.72023437  0.23870562  0.37524173    -0.15200
C618        C  0.71684658  0.23964552  0.42476404    -0.29000
C619        C  0.63838661  0.23961605  0.23175108    -0.03300
C620        C  0.63935599  0.25377299  0.18992717    -0.39800
H621        H  0.63474505  0.22875704  0.32968932     0.12900
H622        H  0.66837023  0.22743327  0.39096660     0.12600
H623        H  0.72383672  0.24725025  0.27682901     0.12000
H624        H  0.69016328  0.24749941  0.21519112     0.12200
H625        H  0.73958299  0.23904344  0.36045476     0.15000
H626        H  0.69801788  0.23867906  0.44139327     0.13800
H627        H  0.62146223  0.22836491  0.24017971     0.11400
H628        H  0.65569873  0.26596480  0.18237436     0.13400
C629        C  0.65839299  0.23337342  0.74011066     0.19500
C630        C  0.65462350  0.22391028  0.69215879    -0.18600
C631        C  0.67476316  0.22342203  0.65761137    -0.10800
C632        C  0.69920328  0.23231158  0.67056536     0.21800
C633        C  0.70317920  0.24065478  0.71921259    -0.20200
C634        C  0.68309354  0.24117770  0.75361488    -0.11000
C635        C  0.72102309  0.23326957  0.63480468    -0.15200
C636        C  0.71809256  0.23465490  0.58523929    -0.29000
C637        C  0.63656867  0.23421345  0.77585314    -0.03300
C638        C  0.63580538  0.25092507  0.81320247    -0.39800
H639        H  0.63597319  0.21717475  0.68120317     0.12900
H640        H  0.67107073  0.21586456  0.62113987     0.12600
H641        H  0.72187138  0.24711404  0.73053509     0.12000
H642        H  0.68715184  0.24743592  0.79090913     0.12200
H643        H  0.74015840  0.23420138  0.64985444     0.15000
H644        H  0.69927036  0.23336181  0.56916172     0.13800
H645        H  0.62094403  0.22086028  0.77133501     0.11400
H646        H  0.65091848  0.26490401  0.81665574     0.13400
C647        C  0.41166871  0.19218092  0.98717904     0.19500
C648        C  0.39471331  0.20205797  0.95191123    -0.18600
C649        C  0.36837531  0.19850481  0.95760757    -0.10800
C650        C  0.35846406  0.18476550  0.99871150     0.21800
C651        C  0.37550466  0.17403265  0.03282669    -0.20200
C652        C  0.40178815  0.17768922  0.02726861    -0.11000
C653        C  0.33068784  0.18021969  0.00633242    -0.15200
C654        C  0.31235015  0.19482364  0.98652401    -0.29000
C655        C  0.43945140  0.19725305  0.98096969    -0.03300
C656        C  0.45554946  0.19806460  0.01965274    -0.39800
H657        H  0.40185682  0.21287042  0.92017295     0.12900
H658        H  0.35598085  0.20625138  0.92940858     0.12600
H659        H  0.36843594  0.16287465  0.06416903     0.12000
H660        H  0.41425704  0.16889817  0.05416842     0.12200
H661        H  0.32514709  0.16465026  0.03101566     0.15000
H662        H  0.31745285  0.21152334  0.96470488     0.13800
H663        H  0.44648890  0.20202006  0.94389114     0.11400
H664        H  0.44840701  0.19490359  0.05723633     0.13400
loop_ 
_geom_bond_atom_site_label_1 
_geom_bond_atom_site_label_2 
_geom_bond_distance 
_geom_bond_site_symmetry_2 
_ccdc_geom_bond_type 
N1            N2   1.320       .  A
N1            C5   1.348       .  A
N1           Cu9   2.077       .  S
N2            C3   1.341       .  A
N2           Cu8   2.056       .  S
C3            C4   1.378       .  A
C3            H6   1.082       .  S
C4            C5   1.389       .  A
C4          C620   1.474       .  S
C5            H7   1.081       .  S
Cu8          N11   2.056   1_554  S
Cu9          N19   2.080       .  S
Cu10         N12   2.086       .  S
Cu10         N18   2.088       .  S
N11          N12   1.321       .  A
N11          C15   1.339       .  A
N12          C13   1.351       .  A
C13          C14   1.390       .  A
C13          H16   1.082       .  S
C14          C15   1.377       .  A
C14         C638   1.475       .  S
C15          H17   1.082       .  S
N18          N19   1.325   1_556  A
N18          C22   1.347       .  A
N19          C20   1.344       .  A
C20          C21   1.381       .  A
C20          H23   1.082       .  S
C21          C22   1.387   1_554  A
C21         C656   1.478       .  S
C22          H24   1.082       .  S
C25          H26   1.110       .  S
C25          C31   1.523       .  S
C25          C30   1.525       .  S
C25          C29   1.543       .  S
C27          H28   1.109       .  S
C27          C33   1.544       .  S
C27          C32   1.537       .  S
C27          C34   1.553       .  S
C29          C32   1.379       .  D
C29         C566   1.488       .  S
C30          C33   1.373       .  D
C30         C618   1.478       .  S
C31          C34   1.377       .  D
C31         C636   1.485       .  S
C32         C546   1.486       .  S
C33         C582   1.489       .  S
C34         C602   1.492       .  S
N35          N36   1.323       .  A
N35          C39   1.347       .  A
N35         Cu43   2.080       .  S
N36          C37   1.347       .  A
N36         Cu42   2.087       .  S
C37          C38   1.388       .  A
C37          H40   1.081       .  S
C38          C39   1.384       .  A
C38         C600   1.484       .  S
C39          H41   1.082       .  S
Cu42         N45   2.087   1_556  S
Cu43         N53   2.079       .  S
Cu44         N46   2.076       .  S
Cu44         N52   2.076       .  S
N45          N46   1.322       .  A
N45          C49   1.348       .  A
N46          C47   1.346       .  A
C47          C48   1.383       .  A
C47          H50   1.082       .  S
C48          C49   1.388       .  A
C48         C584   1.482       .  S
C49          H51   1.082       .  S
N52          N53   1.323   1_554  A
N52          C56   1.344       .  A
N53          C54   1.347       .  A
C54          C55   1.387   1_556  A
C54          H57   1.081       .  S
C55          C56   1.381       .  A
C55         C530   1.477       .  S
C56          H58   1.082       .  S
N59          N60   1.323       .  A
N59          C63   1.345       .  A
N59         Cu67   2.073       .  S
N60          C61   1.347       .  A
N60         Cu66   2.087       .  S
C61          C62   1.388       .  A
C61          H64   1.082       .  S
C62          C63   1.381       .  A
C62         C494   1.480       .  S
C63          H65   1.082       .  S
Cu66         N69   2.087       .  S
Cu67         N77   2.072       .  S
Cu68         N70   2.066       .  S
Cu68         N76   2.066       .  S
N69          N70   1.322       .  A
N69          C73   1.347       .  A
N70          C71   1.344       .  A
C71          C72   1.380       .  A
C71          H74   1.082       .  S
C72          C73   1.389       .  A
C72         C510   1.479       .  S
C73          H75   1.081       .  S
N76          N77   1.321       .  A
N76          C80   1.343       .  A
N77          C78   1.346       .  A
C78          C79   1.386   1_565  A
C78          H81   1.082   1_565  S
C79          C80   1.381   1_545  A
C79         C564   1.474       .  S
C80          H82   1.082   1_565  S
C83          H84   1.107       .  S
C83          C89   1.544       .  S
C83          C88   1.547   1_554  S
C83          C87   1.544       .  S
C85          H86   1.109       .  S
C85          C91   1.530   1_554  S
C85          C90   1.535       .  S
C85          C92   1.528       .  S
C87          C90   1.372       .  D
C87         C438   1.484       .  S
C88          C91   1.374       .  D
C88         C512   1.489       .  S
C89          C92   1.375       .  D
C89         C492   1.489       .  S
C90         C528   1.485       .  S
C91         C476   1.485       .  S
C92         C456   1.484       .  S
N93          N94   1.319       .  A
N93          C97   1.343       .  A
N93        Cu101   2.058   1_655  S
N94          C95   1.344       .  A
N94        Cu100   2.069       .  S
C95          C96   1.388       .  A
C95          H98   1.081       .  S
C96          C97   1.381       .  A
C96         C474   1.476       .  S
C97          H99   1.082   1_655  S
Cu100       N103   2.069       .  S
Cu101       N111   2.058       .  S
Cu102       N104   2.083   1_455  S
Cu102       N110   2.082       .  S
N103        N104   1.323       .  A
N103        C107   1.342       .  A
N104        C105   1.348       .  A
C105        C106   1.388       .  A
C105        H108   1.081       .  S
C106        C107   1.379       .  A
C106        C458   1.476       .  S
C107        H109   1.082       .  S
N110        N111   1.323       .  A
N110        C114   1.347       .  A
N111        C112   1.341       .  A
C112        C113   1.376       .  A
C112        H115   1.082       .  S
C113        C114   1.387       .  A
C113        C420   1.471       .  S
C114        H116   1.081       .  S
N117        N118   1.318   1_565  A
N117        C121   1.346   1_565  A
N117       Cu125   2.069       .  S
N118        C119   1.341       .  A
N118       Cu124   2.056       .  S
C119        C120   1.385       .  A
C119        H122   1.082       .  S
C120        C121   1.385       .  A
C120        C384   1.477       .  S
C121        H123   1.082   1_545  S
Cu124       N127   2.055       .  S
Cu125       N135   2.071       .  S
Cu126       N128   2.100   1_565  S
Cu126       N134   2.101       .  S
N127        N128   1.323       .  A
N127        C131   1.339       .  A
N128        C129   1.352       .  A
C129        C130   1.391       .  A
C129        H132   1.082       .  S
C130        C131   1.375       .  A
C130        C366   1.474       .  S
C131        H133   1.082       .  S
N134        N135   1.325       .  A
N134        C138   1.352       .  A
N135        C136   1.341       .  A
C136        C137   1.378       .  A
C136        H139   1.082       .  S
C137        C138   1.391       .  A
C137        C402   1.480       .  S
C138        H140   1.082       .  S
C141        H142   1.109       .  S
C141        C147   1.543       .  S
C141        C146   1.542   1_556  S
C141        C145   1.537       .  S
C143        H144   1.110       .  S
C143        C149   1.531   1_556  S
C143        C148   1.541       .  S
C143        C150   1.525       .  S
C145        C148   1.379       .  D
C145        C314   1.486       .  S
C146        C149   1.377       .  D
C146        C330   1.488       .  S
C147        C150   1.373       .  D
C147        C348   1.486       .  S
C148        C654   1.488       .  S
C149        C368   1.485       .  S
C150        C386   1.480       .  S
N151        N152   1.326       .  A
N151        C155   1.352       .  A
N151       Cu159   2.106       .  S
N152        C153   1.344       .  A
N152       Cu158   2.080       .  S
C153        C154   1.379       .  A
C153        H156   1.082       .  S
C154        C155   1.390       .  A
C154        C332   1.483       .  S
C155        H157   1.082       .  S
Cu158       N161   2.079       .  S
Cu159       N169   2.104       .  S
Cu160       N162   2.048       .  S
Cu160       N168   2.049       .  S
N161        N162   1.319       .  A
N161        C165   1.347       .  A
N162        C163   1.341       .  A
C163        C164   1.378       .  A
C163        H166   1.082       .  S
C164        C165   1.390       .  A
C164        C350   1.476       .  S
C165        H167   1.081       .  S
N168        N169   1.322       .  A
N168        C172   1.339   1_455  A
N169        C170   1.352   1_455  A
C170        C171   1.393       .  A
C170        H173   1.082       .  S
C171        C172   1.375       .  A
C171        C548   1.477       .  S
C172        H174   1.082       .  S
N175        N176   1.318       .  A
N175        C179   1.347       .  A
N175       Cu183   2.064       .  S
N176        C177   1.339       .  A
N176       Cu182   2.052   1_554  S
C177        C178   1.384       .  A
C177        H180   1.081       .  S
C178        C179   1.385       .  A
C178        C294   1.476       .  S
C179        H181   1.082       .  S
Cu182       N185   2.052       .  S
Cu183       N193   2.066   1_554  S
Cu184       N186   2.099       .  S
Cu184       N192   2.100       .  S
N185        N186   1.322       .  A
N185        C189   1.338       .  A
N186        C187   1.353       .  A
C187        C188   1.392       .  A
C187        H190   1.082       .  S
C188        C189   1.375       .  A
C188        C276   1.476       .  S
C189        H191   1.082       .  S
N192        N193   1.326       .  A
N192        C196   1.351       .  A
N193        C194   1.340   1_556  A
C194        C195   1.375   1_554  A
C194        H197   1.082       .  S
C195        C196   1.389       .  A
C195        C312   1.475       .  S
C196        H198   1.082       .  S
C199        H200   1.112       .  S
C199        C205   1.522       .  S
C199        C204   1.528       .  S
C199        C203   1.538       .  S
C201        H202   1.109       .  S
C201        C207   1.541       .  S
C201        C206   1.536       .  S
C201        C208   1.546       .  S
C203        C206   1.377       .  D
C203        C422   1.483       .  S
C204        C207   1.379       .  D
C204        C278   1.484       .  S
C205        C208   1.374       .  D
C205        C296   1.480       .  S
C206        C404   1.488       .  S
C207        C240   1.481       .  S
C208        C260   1.488       .  S
N209        N210   1.323       .  A
N209        C213   1.344       .  A
N209       Cu217   2.070       .  S
N210        C211   1.347       .  A
N210       Cu216   2.087       .  S
C211        C212   1.387       .  A
C211        H214   1.081       .  S
C212        C213   1.380       .  A
C212        C242   1.478       .  S
C213        H215   1.082       .  S
Cu216       N219   2.087   1_556  S
Cu217       N227   2.069       .  S
Cu218       N220   2.064       .  S
Cu218       N226   2.063   1_554  S
N219        N220   1.322       .  A
N219        C223   1.348       .  A
N220        C221   1.343       .  A
C221        C222   1.379       .  A
C221        H224   1.082       .  S
C222        C223   1.390       .  A
C222        C258   1.479       .  S
C223        H225   1.081       .  S
N226        N227   1.321       .  A
N226        C230   1.343   1_556  A
N227        C228   1.345       .  A
C228        C229   1.382       .  A
C228        H231   1.082       .  S
C229        C230   1.385   1_556  A
C229        C440   1.475       .  S
C230        H232   1.082       .  S
C233        C234   1.402       .  A
C233        C238   1.408       .  A
C233        C241   1.484       .  S
C234        C235   1.397       .  A
C234        H243   1.083       .  S
C235        C236   1.407       .  A
C235        H244   1.082       .  S
C236        C237   1.403       .  A
C236        C239   1.485       .  S
C237        C238   1.400       .  A
C237        H245   1.083       .  S
C238        H246   1.082       .  S
C239        C240   1.343       .  D
C239        H247   1.086       .  S
C240        H248   1.085       .  S
C241        C242   1.344       .  D
C241        H249   1.086       .  S
C242        H250   1.086       .  S
C251        C252   1.401       .  A
C251        C256   1.407       .  A
C251        C259   1.488       .  S
C252        C253   1.402       .  A
C252        H261   1.083       .  S
C253        C254   1.413       .  A
C253        H262   1.079       .  S
C254        C255   1.403       .  A
C254        C257   1.493       .  S
C255        C256   1.395       .  A
C255        H263   1.084       .  S
C256        H264   1.083       .  S
C257        C258   1.345       .  D
C257        H265   1.086       .  S
C258        H266   1.082       .  S
C259        C260   1.343       .  D
C259        H267   1.085       .  S
C260        H268   1.084       .  S
C269        C270   1.402       .  A
C269        C274   1.410       .  A
C269        C277   1.489       .  S
C270        C271   1.398       .  A
C270        H279   1.083       .  S
C271        C272   1.409       .  A
C271        H280   1.082       .  S
C272        C273   1.402       .  A
C272        C275   1.490       .  S
C273        C274   1.400       .  A
C273        H281   1.083       .  S
C274        H282   1.081       .  S
C275        C276   1.343       .  D
C275        H283   1.086       .  S
C276        H284   1.085       .  S
C277        C278   1.342       .  D
C277        H285   1.087       .  S
C278        H286   1.084       .  S
C287        C288   1.405       .  A
C287        C292   1.406       .  A
C287        C295   1.482       .  S
C288        C289   1.400       .  A
C288        H297   1.083       .  S
C289        C290   1.406       .  A
C289        H298   1.082       .  S
C290        C291   1.401       .  A
C290        C293   1.478       .  S
C291        C292   1.393       .  A
C291        H299   1.084       .  S
C292        H300   1.081       .  S
C293        C294   1.344       .  D
C293        H301   1.086       .  S
C294        H302   1.085       .  S
C295        C296   1.345       .  D
C295        H303   1.087       .  S
C296        H304   1.084       .  S
C305        C306   1.403       .  A
C305        C310   1.409       .  A
C305        C313   1.487   1_556  S
C306        C307   1.398       .  A
C306        H315   1.084   1_556  S
C307        C308   1.407       .  A
C307        H316   1.082       .  S
C308        C309   1.401       .  A
C308        C311   1.485       .  S
C309        C310   1.399       .  A
C309        H317   1.083       .  S
C310        H318   1.081       .  S
C311        C312   1.342       .  D
C311        H319   1.086       .  S
C312        H320   1.086   1_556  S
C313        C314   1.344   1_554  D
C313        H321   1.086       .  S
C314        H322   1.084       .  S
C323        C324   1.405       .  A
C323        C328   1.408       .  A
C323        C331   1.493       .  S
C324        C325   1.402       .  A
C324        H333   1.083       .  S
C325        C326   1.408       .  A
C325        H334   1.082       .  S
C326        C327   1.404       .  A
C326        C329   1.491       .  S
C327        C328   1.401       .  A
C327        H335   1.083       .  S
C328        H336   1.082       .  S
C329        C330   1.346       .  D
C329        H337   1.087       .  S
C330        H338   1.085       .  S
C331        C332   1.347       .  D
C331        H339   1.086       .  S
C332        H340   1.085       .  S
C341        C342   1.402       .  A
C341        C346   1.411       .  A
C341        C349   1.488       .  S
C342        C343   1.395       .  A
C342        H351   1.083       .  S
C343        C344   1.407       .  A
C343        H352   1.082       .  S
C344        C345   1.402       .  A
C344        C347   1.486       .  S
C345        C346   1.400       .  A
C345        H353   1.083       .  S
C346        H354   1.080       .  S
C347        C348   1.343       .  D
C347        H355   1.085       .  S
C348        H356   1.084       .  S
C349        C350   1.343       .  D
C349        H357   1.085       .  S
C350        H358   1.083       .  S
C359        C360   1.401       .  A
C359        C364   1.410       .  A
C359        C367   1.487       .  S
C360        C361   1.395       .  A
C360        H369   1.084       .  S
C361        C362   1.410       .  A
C361        H370   1.081       .  S
C362        C363   1.403       .  A
C362        C365   1.490       .  S
C363        C364   1.401       .  A
C363        H371   1.083       .  S
C364        H372   1.081       .  S
C365        C366   1.344       .  D
C365        H373   1.086       .  S
C366        H374   1.084       .  S
C367        C368   1.343       .  D
C367        H375   1.086       .  S
C368        H376   1.084       .  S
C377        C378   1.402       .  A
C377        C382   1.406       .  A
C377        C385   1.481       .  S
C378        C379   1.399       .  A
C378        H387   1.084       .  S
C379        C380   1.407       .  A
C379        H388   1.081       .  S
C380        C381   1.403       .  A
C380        C383   1.483       .  S
C381        C382   1.395       .  A
C381        H389   1.084       .  S
C382        H390   1.082       .  S
C383        C384   1.345       .  D
C383        H391   1.086       .  S
C384        H392   1.085       .  S
C385        C386   1.343       .  D
C385        H393   1.088       .  S
C386        H394   1.086       .  S
C395        C396   1.403       .  A
C395        C400   1.408       .  A
C395        C403   1.488       .  S
C396        C397   1.399       .  A
C396        H405   1.083       .  S
C397        C398   1.409       .  A
C397        H406   1.082       .  S
C398        C399   1.404       .  A
C398        C401   1.491       .  S
C399        C400   1.402       .  A
C399        H407   1.083       .  S
C400        H408   1.082       .  S
C401        C402   1.345       .  D
C401        H409   1.086       .  S
C402        H410   1.085       .  S
C403        C404   1.345       .  D
C403        H411   1.087       .  S
C404        H412   1.085       .  S
C413        C414   1.404       .  A
C413        C418   1.410       .  A
C413        C421   1.487       .  S
C414        C415   1.396       .  A
C414        H423   1.083       .  S
C415        C416   1.406       .  A
C415        H424   1.082       .  S
C416        C417   1.401       .  A
C416        C419   1.482       .  S
C417        C418   1.397       .  A
C417        H425   1.083       .  S
C418        H426   1.079       .  S
C419        C420   1.342       .  D
C419        H427   1.086       .  S
C420        H428   1.085       .  S
C421        C422   1.345       .  D
C421        H429   1.086       .  S
C422        H430   1.082       .  S
C431        C432   1.403       .  A
C431        C436   1.407   1_554  A
C431        C439   1.482       .  S
C432        C433   1.397       .  A
C432        H441   1.084       .  S
C433        C434   1.406       .  A
C433        H442   1.082       .  S
C434        C435   1.402   1_554  A
C434        C437   1.480       .  S
C435        C436   1.397       .  A
C435        H443   1.084       .  S
C436        H444   1.082       .  S
C437        C438   1.342       .  D
C437        H445   1.083   1_554  S
C438        H446   1.085       .  S
C439        C440   1.344   1_554  D
C439        H447   1.086       .  S
C440        H448   1.085       .  S
C449        C450   1.404       .  A
C449        C454   1.410       .  A
C449        C457   1.492       .  S
C450        C451   1.399       .  A
C450        H459   1.083       .  S
C451        C452   1.408       .  A
C451        H460   1.081       .  S
C452        C453   1.401       .  A
C452        C455   1.486       .  S
C453        C454   1.397       .  A
C453        H461   1.084       .  S
C454        H462   1.079       .  S
C455        C456   1.344       .  D
C455        H463   1.087       .  S
C456        H464   1.084       .  S
C457        C458   1.346       .  D
C457        H465   1.086       .  S
C458        H466   1.082       .  S
C467        C468   1.401       .  A
C467        C472   1.406       .  A
C467        C475   1.481       .  S
C468        C469   1.399       .  A
C468        H477   1.083       .  S
C469        C470   1.410       .  A
C469        H478   1.080       .  S
C470        C471   1.403       .  A
C470        C473   1.486       .  S
C471        C472   1.395       .  A
C471        H479   1.084       .  S
C472        H480   1.082       .  S
C473        C474   1.344       .  D
C473        H481   1.086       .  S
C474        H482   1.083       .  S
C475        C476   1.343       .  D
C475        H483   1.086       .  S
C476        H484   1.085       .  S
C485        C486   1.403       .  A
C485        C490   1.408       .  A
C485        C493   1.487       .  S
C486        C487   1.398       .  A
C486        H495   1.083       .  S
C487        C488   1.408       .  A
C487        H496   1.082       .  S
C488        C489   1.404       .  A
C488        C491   1.488       .  S
C489        C490   1.402       .  A
C489        H497   1.083       .  S
C490        H498   1.082       .  S
C491        C492   1.346       .  D
C491        H499   1.085       .  S
C492        H500   1.085       .  S
C493        C494   1.345       .  D
C493        H501   1.086       .  S
C494        H502   1.086       .  S
C503        C504   1.404       .  A
C503        C508   1.409       .  A
C503        C511   1.488       .  S
C504        C505   1.402       .  A
C504        H513   1.083       .  S
C505        C506   1.409       .  A
C505        H514   1.081       .  S
C506        C507   1.402       .  A
C506        C509   1.487       .  S
C507        C508   1.395       .  A
C507        H515   1.084       .  S
C508        H516   1.082       .  S
C509        C510   1.344       .  D
C509        H517   1.086       .  S
C510        H518   1.085       .  S
C511        C512   1.344       .  D
C511        H519   1.083       .  S
C512        H520   1.085       .  S
C521        C522   1.403       .  A
C521        C526   1.408   1_556  A
C521        C529   1.486       .  S
C522        C523   1.398       .  A
C522        H531   1.083       .  S
C523        C524   1.404       .  A
C523        H532   1.084       .  S
C524        C525   1.406   1_556  A
C524        C527   1.484       .  S
C525        C526   1.398       .  A
C525        H533   1.082       .  S
C526        H534   1.082       .  S
C527        C528   1.346   1_556  D
C527        H535   1.088       .  S
C528        H536   1.084       .  S
C529        C530   1.346   1_556  D
C529        H537   1.086       .  S
C530        H538   1.085       .  S
C539        C540   1.401       .  A
C539        C544   1.410       .  A
C539        C547   1.488       .  S
C540        C541   1.398       .  A
C540        H549   1.083       .  S
C541        C542   1.408       .  A
C541        H550   1.082       .  S
C542        C543   1.403       .  A
C542        C545   1.487       .  S
C543        C544   1.400       .  A
C543        H551   1.083       .  S
C544        H552   1.082       .  S
C545        C546   1.346       .  D
C545        H553   1.086       .  S
C546        H554   1.085       .  S
C547        C548   1.343       .  D
C547        H555   1.086       .  S
C548        H556   1.085       .  S
C557        C558   1.404       .  A
C557        C562   1.411       .  A
C557        C565   1.490       .  S
C558        C559   1.395       .  A
C558        H567   1.084       .  S
C559        C560   1.405       .  A
C559        H568   1.082       .  S
C560        C561   1.402       .  A
C560        C563   1.483       .  S
C561        C562   1.400       .  A
C561        H569   1.083       .  S
C562        H570   1.079       .  S
C563        C564   1.344       .  D
C563        H571   1.086       .  S
C564        H572   1.086       .  S
C565        C566   1.346       .  D
C565        H573   1.086       .  S
C566        H574   1.080       .  S
C575        C576   1.402       .  A
C575        C580   1.408       .  A
C575        C583   1.488       .  S
C576        C577   1.398       .  A
C576        H585   1.084       .  S
C577        C578   1.409       .  A
C577        H586   1.082       .  S
C578        C579   1.405       .  A
C578        C581   1.492       .  S
C579        C580   1.403       .  A
C579        H587   1.083       .  S
C580        H588   1.082       .  S
C581        C582   1.347       .  D
C581        H589   1.086       .  S
C582        H590   1.084       .  S
C583        C584   1.345       .  D
C583        H591   1.087       .  S
C584        H592   1.086       .  S
C593        C594   1.405       .  A
C593        C598   1.408       .  A
C593        C601   1.491       .  S
C594        C595   1.404       .  A
C594        H603   1.083       .  S
C595        C596   1.409       .  A
C595        H604   1.082       .  S
C596        C597   1.403       .  A
C596        C599   1.489       .  S
C597        C598   1.398       .  A
C597        H605   1.084       .  S
C598        H606   1.082       .  S
C599        C600   1.346       .  D
C599        H607   1.086       .  S
C600        H608   1.086       .  S
C601        C602   1.346       .  D
C601        H609   1.085       .  S
C602        H610   1.084       .  S
C611        C612   1.401       .  A
C611        C616   1.408       .  A
C611        C619   1.485       .  S
C612        C613   1.397       .  A
C612        H621   1.084       .  S
C613        C614   1.410       .  A
C613        H622   1.079       .  S
C614        C615   1.402       .  A
C614        C617   1.487       .  S
C615        C616   1.397       .  A
C615        H623   1.083       .  S
C616        H624   1.082       .  S
C617        C618   1.343       .  D
C617        H625   1.087       .  S
C618        H626   1.081       .  S
C619        C620   1.343       .  D
C619        H627   1.086       .  S
C620        H628   1.085       .  S
C629        C630   1.403       .  A
C629        C634   1.409       .  A
C629        C637   1.489       .  S
C630        C631   1.401       .  A
C630        H639   1.083       .  S
C631        C632   1.410       .  A
C631        H640   1.081       .  S
C632        C633   1.401       .  A
C632        C635   1.489       .  S
C633        C634   1.397       .  A
C633        H641   1.083       .  S
C634        H642   1.081       .  S
C635        C636   1.343       .  D
C635        H643   1.087       .  S
C636        H644   1.083       .  S
C637        C638   1.344       .  D
C637        H645   1.086       .  S
C638        H646   1.085       .  S
C647        C648   1.404       .  A
C647        C652   1.407   1_556  A
C647        C655   1.488       .  S
C648        C649   1.400       .  A
C648        H657   1.083       .  S
C649        C650   1.408       .  A
C649        H658   1.081       .  S
C650        C651   1.403   1_556  A
C650        C653   1.487   1_556  S
C651        C652   1.398       .  A
C651        H659   1.083       .  S
C652        H660   1.082       .  S
C653        C654   1.346   1_554  D
C653        H661   1.086       .  S
C654        H662   1.083       .  S
C655        C656   1.346   1_556  D
C655        H663   1.086       .  S
C656        H664   1.085       .  S
