geometry optimzed in LAMMPS
_audit_creation_date              2020-11-30 
_audit_creation_method            'lammps2cif' 
_symmetry_space_group_name_H-M    'P1' 
_symmetry_Int_Tables_number       1 
_symmetry_cell_setting            triclinic 
loop_ 
_symmetry_equiv_pos_as_xyz 
  x,y,z 
_cell_length_a                    37.75222195 
_cell_length_b                    37.63936909698354 
_cell_length_c                    74.9455126357408 
_cell_angle_alpha                 89.9450747836918 
_cell_angle_beta                  89.99295046937198 
_cell_angle_gamma                 90.20688297866369 
loop_ 
_atom_site_label 
_atom_site_type_symbol 
_atom_site_fract_x 
_atom_site_fract_y 
_atom_site_fract_z 
_atom_site_charge 
C1          C  0.74730942  0.98516663  0.36625484     0.80200
N2          N  0.72201386  0.01061947  0.36742860    -0.78100
C3          C  0.72536935  0.03794654  0.37920825     0.82700
N4          N  0.75410316  0.03878018  0.39027129    -0.78000
C5          C  0.77927159  0.01287257  0.38941821     0.82800
N6          N  0.77587125  0.98660321  0.37716018    -0.79700
O7          O  0.71067808  0.71043117  0.22930026    -0.74400
O8          O  0.70843173  0.78360861  0.26497352    -0.74400
O9          O  0.70502741  0.78254246  0.22865553    -0.74500
O10         O  0.71407984  0.71204298  0.26545100    -0.74500
O11         O  0.77282553  0.71712846  0.26415033    -0.74500
O12         O  0.76386780  0.78729059  0.22725370    -0.74500
O13         O  0.76724818  0.78843703  0.26347986    -0.74400
O14         O  0.76949873  0.71509820  0.22787178    -0.74500
Ni15       Ni  0.70746377  0.74701793  0.24710347     1.25400
Ni16       Ni  0.77043846  0.75215817  0.24558222     1.25400
C17         C  0.74045226  0.70049031  0.22280713     0.87800
C18         C  0.73755626  0.79751947  0.27036225     0.87700
C19         C  0.73299019  0.79662026  0.22194100     0.87700
C20         C  0.74492818  0.70339077  0.27107863     0.87900
C21         C  0.74951364  0.51033775  0.36387607     0.80200
N22         N  0.77530426  0.48543802  0.36510717    -0.78100
C23         C  0.77329502  0.45941530  0.37768586     0.82700
N24         N  0.74570214  0.45938710  0.38941350    -0.78000
C25         C  0.72001895  0.48463927  0.38839685     0.82800
N26         N  0.72194476  0.50965689  0.37541076    -0.79700
C27         C  0.73630071  0.51623585  0.12473011     0.80200
N28         N  0.71150491  0.49026504  0.12289474    -0.78100
C29         C  0.71331338  0.46665179  0.10919256     0.82700
N30         N  0.74028389  0.46931103  0.09717243    -0.78000
C31         C  0.76507890  0.49546720  0.09883137     0.82800
N32         N  0.76308318  0.51869271  0.11265963    -0.79700
C33         C  0.73916022  0.97697765  0.12234395     0.80200
N34         N  0.71526620  0.97747536  0.10882664    -0.78100
C35         C  0.71814004  0.00156226  0.09539357     0.82700
N36         N  0.74510807  0.02578606  0.09576030    -0.78000
C37         C  0.76909264  0.02572962  0.10936619     0.82800
N38         N  0.76611769  0.00106268  0.12257607    -0.79700
C39         C  0.52496205  0.00078262  0.00178222     0.02300
C40         C  0.49921540  0.02816239  0.00083364     0.02300
C41         C  0.47281337  0.02632392  0.98768579    -0.18300
C42         C  0.47061323  0.99748785  0.97589948     0.02300
C43         C  0.49569657  0.96965130  0.97722809     0.02300
C44         C  0.52271175  0.97199568  0.98998200    -0.18300
H45         H  0.54207978  0.95084429  0.99088088     0.04300
H46         H  0.45338727  0.04740980  0.98676857     0.04300
C47         C  0.23992572  0.00929689  0.86253573     0.80200
N48         N  0.26878540  0.01019022  0.87332751    -0.78100
C49         C  0.27232476  0.98621801  0.88672608     0.82700
N50         N  0.24674237  0.96143177  0.88953215    -0.78000
C51         C  0.21779171  0.96034730  0.87880686     0.82800
N52         N  0.21442721  0.98427786  0.86529011    -0.79700
C53         C  0.23702718  0.48231424  0.86519134     0.80200
N54         N  0.21245442  0.48433527  0.87841401    -0.78100
C55         C  0.21488764  0.50994767  0.89118550     0.82700
N56         N  0.24198215  0.53385284  0.89051588    -0.78000
C57         C  0.26662546  0.53207189  0.87729552     0.82800
N58         N  0.26418928  0.50611234  0.86474491    -0.79700
O59         O  0.26272986  0.28469002  0.72599983    -0.74400
O60         O  0.26128823  0.21248185  0.76220713    -0.74400
O61         O  0.26283878  0.21264397  0.72609293    -0.74500
O62         O  0.26132101  0.28458205  0.76218164    -0.74500
O63         O  0.20228151  0.28468370  0.76142439    -0.74500
O64         O  0.20385269  0.21143836  0.72573694    -0.74500
O65         O  0.20222218  0.21240799  0.76179232    -0.74400
O66         O  0.20369689  0.28392150  0.72515723    -0.74500
Ni67       Ni  0.26410861  0.24863689  0.74412621     1.25400
Ni68       Ni  0.20088900  0.24816812  0.74348019     1.25400
C69         C  0.23345055  0.29627981  0.71964817     0.87800
C70         C  0.23155499  0.20044519  0.76790916     0.87700
C71         C  0.23371725  0.19958046  0.72023596     0.87700
C72         C  0.23158759  0.29643448  0.76780495     0.87900
C73         C  0.24567333  0.00434279  0.62831983     0.80200
N74         N  0.21996177  0.00545502  0.61576415    -0.78100
C75         C  0.21868380  0.98102756  0.60253233     0.82700
N76         N  0.24314160  0.95440850  0.60222985    -0.78000
C77         C  0.26894078  0.95261566  0.61497966     0.82800
N78         N  0.27022182  0.97801590  0.62791059    -0.79700
C79         C  0.24509050  0.48760389  0.62474442     0.80200
N80         N  0.21970347  0.51300640  0.62361469    -0.78100
C81         C  0.22109644  0.53832202  0.61068370     0.82700
N82         N  0.24818999  0.53782658  0.59867625    -0.78000
C83         C  0.27370467  0.51238201  0.59952263     0.82800
N84         N  0.27200110  0.48742994  0.61266150    -0.79700
C85         C  0.97028999  0.50264076  0.01227972     0.02300
C86         C  0.99552349  0.47478399  0.01089624     0.02300
C87         C  0.02319478  0.47788548  0.99840813    -0.18300
C88         C  0.02569397  0.50707917  0.98676879     0.02300
C89         C  0.99950975  0.53404352  0.98773184     0.02300
C90         C  0.97286912  0.53160238  0.00065517    -0.18300
H91         H  0.95316645  0.55247703  0.00143192     0.04300
H92         H  0.04281222  0.45696297  0.99755485     0.04300
O93         O  0.78168478  0.78581555  0.76328048    -0.74400
O94         O  0.71359349  0.78108293  0.72533548    -0.74400
O95         O  0.71013939  0.78440816  0.76126780    -0.74500
O96         O  0.78538926  0.78279868  0.72706539    -0.74500
O97         O  0.78542053  0.72367848  0.72788685    -0.74500
O98         O  0.71173660  0.72535528  0.76315009    -0.74500
O99         O  0.71393420  0.72187967  0.72705240    -0.74400
O100        O  0.78314824  0.72659542  0.76429470    -0.74500
Ni101      Ni  0.74774776  0.78562449  0.74417142     1.25400
Ni102      Ni  0.74868287  0.72225879  0.74563243     1.25400
C103        C  0.79307808  0.75691889  0.77024510     0.87800
C104        C  0.70232553  0.75066154  0.72012650     0.87700
C105        C  0.69870524  0.75525750  0.76796930     0.87700
C106        C  0.79741360  0.75300335  0.72153612     0.87900
C107        C  0.50926283  0.74772121  0.86255456     0.80200
N108        N  0.48565457  0.72038916  0.86259228    -0.78100
C109        C  0.46074407  0.71785534  0.87566784     0.82700
N110        N  0.46042332  0.74242818  0.88893561    -0.78000
C111        C  0.48440571  0.76938015  0.88918192     0.82800
N112        N  0.50851241  0.77212361  0.87581768    -0.79700
C113        C  0.96281646  0.76227028  0.87426909     0.80200
N114        N  0.96153711  0.73725701  0.88735649    -0.78100
C115        C  0.98583174  0.73763598  0.90071490     0.82700
N116        N  0.01160150  0.76281097  0.90086053    -0.78000
C117        C  0.01374650  0.78753752  0.88768591     0.82800
N118        N  0.98919736  0.78708284  0.87435742    -0.79700
C119        C  0.51493217  0.74124927  0.62454461     0.80200
N120        N  0.48792647  0.76501066  0.62567810    -0.78100
C121        C  0.46181118  0.76529601  0.61315363     0.82700
N122        N  0.46304111  0.74177632  0.59938707    -0.78000
C123        C  0.49012286  0.71817994  0.59811411     0.82800
N124        N  0.51588620  0.71782723  0.61077168    -0.79700
C125        C  0.98176457  0.75159954  0.62371802     0.80200
N126        N  0.00689164  0.72602688  0.62228148    -0.78100
C127        C  0.02922543  0.72548985  0.60803446     0.82700
N128        N  0.02624952  0.75090679  0.59519305    -0.78000
C129        C  0.00125076  0.77666537  0.59660790     0.82800
N130        N  0.97900531  0.77689944  0.61086178    -0.79700
C131        C  0.01961686  0.23459914  0.11784917     0.80200
N132        N  0.01841757  0.26077531  0.10541029    -0.78100
C133        C  0.99172589  0.26191756  0.09327810     0.82700
N134        N  0.96574486  0.23665390  0.09377872    -0.78000
C135        C  0.96668601  0.21005250  0.10614717     0.82800
N136        N  0.99386623  0.20924935  0.11805558    -0.79700
C137        C  0.47960422  0.24241482  0.12148185     0.80200
N138        N  0.47944030  0.21749720  0.10842302    -0.78100
C139        C  0.50225350  0.22004596  0.09451956     0.82700
N140        N  0.52551174  0.24754974  0.09368976    -0.78000
C141        C  0.52646860  0.27244655  0.10680717     0.82800
N142        N  0.50319969  0.26991726  0.12070193    -0.79700
O143        O  0.28367438  0.26218662  0.25879427    -0.74400
O144        O  0.21268043  0.26029384  0.22236184    -0.74400
O145        O  0.21227117  0.26530258  0.25851212    -0.74500
O146        O  0.28406012  0.25765763  0.22285540    -0.74500
O147        O  0.28204819  0.19850623  0.22474820    -0.74500
O148        O  0.20919284  0.20625160  0.26032772    -0.74500
O149        O  0.21054256  0.20116588  0.22408468    -0.74400
O150        O  0.28094687  0.20309020  0.26083617    -0.74500
Ni151      Ni  0.24819662  0.26343248  0.24056483     1.25400
Ni152      Ni  0.24551612  0.20011097  0.24259372     1.25400
C153        C  0.29407713  0.23292740  0.26574420     0.87800
C154        C  0.20048806  0.23037135  0.21695782     0.87700
C155        C  0.19908375  0.23712732  0.26542957     0.87700
C156        C  0.29494641  0.22702560  0.21796216     0.87900
C157        C  0.01691447  0.25089201  0.36319603     0.80200
N158        N  0.99222418  0.27694086  0.36458056    -0.78100
C159        C  0.96858242  0.27650016  0.37825820     0.82700
N160        N  0.96985498  0.25008117  0.39058051    -0.78000
C161        C  0.99446738  0.22406705  0.38921707     0.82800
N162        N  0.01788717  0.22443760  0.37549975    -0.79700
C163        C  0.48239582  0.24730959  0.36034052     0.80200
N164        N  0.47997346  0.27434575  0.37219572    -0.78100
C165        C  0.50437882  0.27800113  0.38532769     0.82700
N166        N  0.53148528  0.25437190  0.38662805    -0.78000
C167        C  0.53412951  0.22706405  0.37477996     0.82800
N168        N  0.50939362  0.22361654  0.36165850    -0.79700
C169        C  0.00355658  0.03226603  0.48220315     0.02300
C170        C  0.97596897  0.00664228  0.48092799     0.02300
C171        C  0.97472153  0.97872893  0.49331027    -0.18300
C172        C  0.99993649  0.97583686  0.50698351     0.02300
C173        C  0.02793497  0.00108801  0.50807236     0.02300
C174        C  0.02892809  0.02927311  0.49581200    -0.18300
H175        H  0.04984796  0.04898452  0.49679804     0.04300
H176        H  0.95386173  0.95895410  0.49228998     0.04300
C177        C  0.52017307  0.49593745  0.47830408     0.02300
C178        C  0.49307918  0.46965574  0.47907249     0.02300
C179        C  0.46680224  0.47221345  0.49235633    -0.18300
C180        C  0.46592461  0.50071690  0.50452561     0.02300
C181        C  0.49274249  0.52734675  0.50345851     0.02300
C182        C  0.51917226  0.52450228  0.49032481    -0.18300
H183        H  0.53992963  0.54533521  0.48946960     0.04300
H184        H  0.44595500  0.45145906  0.49309371     0.04300
C185        C  0.50022906  0.30674098  0.39851399     0.01400
C186        C  0.47584799  0.30274452  0.41261802     0.04200
C187        C  0.47196708  0.32993315  0.42535786    -0.11900
C188        C  0.49166196  0.36166075  0.42370728     0.23500
C189        C  0.51402992  0.36662654  0.40885400    -0.12500
C190        C  0.51895579  0.33891706  0.39649631     0.04900
C191        C  0.49083628  0.38864888  0.43819453     0.27300
C192        C  0.46608429  0.41648903  0.43785448    -0.13100
C193        C  0.46582163  0.44201767  0.45159400     0.05400
C194        C  0.49086412  0.44037078  0.46561340    -0.09100
C195        C  0.51376490  0.41085161  0.46657196     0.06200
C196        C  0.51447851  0.38571621  0.45265291    -0.13500
Br197      Br  0.53699575  0.41180172  0.40526054    -0.05500
Br198      Br  0.44804954  0.25978370  0.41450826     0.00100
Br199      Br  0.42983245  0.47808591  0.45142706     0.00500
Br200      Br  0.54805807  0.34716136  0.45318462    -0.03900
Br201      Br  0.55112540  0.34503792  0.37674322     0.00600
Br202      Br  0.43984414  0.32380494  0.44513463    -0.03200
Br203      Br  0.43275970  0.41970706  0.41841372    -0.04000
Br204      Br  0.54123295  0.40243087  0.48775495    -0.00100
C205        C  0.99690409  0.19649397  0.40302894     0.01400
C206        C  0.01012938  0.20539315  0.42001610     0.04200
C207        C  0.01315886  0.17909423  0.43322422    -0.11900
C208        C  0.00353611  0.14372983  0.42933319     0.23500
C209        C  0.99109252  0.13467983  0.41220874    -0.12500
C210        C  0.98699624  0.16120882  0.39919040     0.04900
C211        C  0.00508632  0.11634201  0.44345175     0.27300
C212        C  0.03303673  0.09171029  0.44381629    -0.13100
C213        C  0.03327299  0.06460288  0.45673475     0.05400
C214        C  0.00595376  0.06270639  0.46961683    -0.09100
C215        C  0.98055334  0.08998053  0.47038773     0.06200
C216        C  0.97882543  0.11545529  0.45676634    -0.13500
Br217      Br  0.98008527  0.08586986  0.40656761    -0.05500
Br218      Br  0.02486721  0.25351002  0.42502595     0.00100
Br219      Br  0.07172370  0.03111882  0.45683587     0.00500
Br220      Br  0.94005546  0.14874605  0.45615060    -0.03900
Br221      Br  0.96598197  0.14950515  0.37650736     0.00600
Br222      Br  0.03071189  0.19136525  0.45662224    -0.03200
Br223      Br  0.07082531  0.09518433  0.42651713    -0.04000
Br224      Br  0.95134050  0.09549616  0.49121454    -0.00100
C225        C  0.04252348  0.25100793  0.34836610     0.01400
C226        C  0.06883226  0.27760351  0.34735641     0.04200
C227        C  0.09394620  0.27696086  0.33350692    -0.11900
C228        C  0.09362101  0.24899356  0.32104435     0.23500
C229        C  0.06691273  0.22282462  0.32181021    -0.12500
C230        C  0.04122808  0.22397948  0.33537305     0.04900
C231        C  0.12126588  0.24701502  0.30705960     0.27300
C232        C  0.11694366  0.26570837  0.29096216    -0.13100
C233        C  0.14261409  0.26298745  0.27742545     0.05400
C234        C  0.17221896  0.24048507  0.27972968    -0.09100
C235        C  0.17664731  0.22210333  0.29603789     0.06200
C236        C  0.15147167  0.22584736  0.30975276    -0.13500
Br237      Br  0.06520216  0.18592466  0.30396483    -0.05500
Br238      Br  0.07173376  0.31389021  0.36541285     0.00100
Br239      Br  0.13623794  0.28951457  0.25561292     0.00500
Br240      Br  0.15853541  0.20265793  0.33246476    -0.03900
Br241      Br  0.00347496  0.18935390  0.33569185     0.00600
Br242      Br  0.12846455  0.31463856  0.33134337    -0.03200
Br243      Br  0.07546126  0.29482216  0.28756929    -0.04000
Br244      Br  0.21801223  0.19313691  0.30011971    -0.00100
C245        C  0.32173646  0.23379714  0.27962654     0.01400
C246        C  0.35310173  0.21385252  0.27757042     0.04200
C247        C  0.37985265  0.21583147  0.29060496    -0.11900
C248        C  0.37562508  0.23819498  0.30549822     0.23500
C249        C  0.34442547  0.25812816  0.30753901    -0.12500
C250        C  0.31718633  0.25533489  0.29484613     0.04900
C251        C  0.40351324  0.24002490  0.31935093     0.27300
C252        C  0.40163964  0.21744083  0.33431278    -0.13100
C253        C  0.42766489  0.21958739  0.34769562     0.05400
C254        C  0.45574889  0.24414196  0.34606677    -0.09100
C255        C  0.45712115  0.26730019  0.33128891     0.06200
C256        C  0.43107798  0.26516299  0.31790478    -0.13500
Br257      Br  0.33925774  0.28936186  0.32777084    -0.05500
Br258      Br  0.36013395  0.18455337  0.25673394     0.00100
Br259      Br  0.42356120  0.19048053  0.36875516     0.00500
Br260      Br  0.43237929  0.29719432  0.29779677    -0.03900
Br261      Br  0.27269053  0.27903246  0.29905012     0.00600
Br262      Br  0.42239835  0.18797275  0.28817780    -0.03200
Br263      Br  0.36265506  0.18441186  0.33662373    -0.04000
Br264      Br  0.49433864  0.30238869  0.32958979    -0.00100
C265        C  0.45331426  0.23966932  0.13605863     0.01400
C266        C  0.42386289  0.26260217  0.13632258     0.04200
C267        C  0.39727523  0.25829569  0.14931787    -0.11900
C268        C  0.40024499  0.23131334  0.16225405     0.23500
C269        C  0.42928715  0.20799548  0.16187439    -0.12500
C270        C  0.45564602  0.21197479  0.14872716     0.04900
C271        C  0.37370244  0.22847744  0.17676926     0.27300
C272        C  0.38034615  0.24527344  0.19320949    -0.13100
C273        C  0.35508137  0.24354012  0.20694039     0.05400
C274        C  0.32288612  0.22515347  0.20424945    -0.09100
C275        C  0.31666399  0.20739992  0.18795698     0.06200
C276        C  0.34209013  0.20911299  0.17422435    -0.13500
Br277      Br  0.43253202  0.17053470  0.17941601    -0.05500
Br278      Br  0.41886387  0.29878425  0.11833145     0.00100
Br279      Br  0.36516501  0.26571319  0.22961550     0.00500
Br280      Br  0.33360042  0.18550074  0.15178645    -0.03900
Br281      Br  0.49498311  0.17953658  0.14823045     0.00600
Br282      Br  0.35627930  0.28879459  0.14923425    -0.03200
Br283      Br  0.42407328  0.27105725  0.19677396    -0.04000
Br284      Br  0.27269406  0.18224833  0.18403373    -0.00100
C285        C  0.04831241  0.23396304  0.13137252     0.01400
C286        C  0.06893448  0.20305562  0.13364046     0.04200
C287        C  0.09443245  0.20133739  0.14734201    -0.11900
C288        C  0.09949096  0.23051128  0.15885875     0.23500
C289        C  0.07951962  0.26167297  0.15637725    -0.12500
C290        C  0.05449157  0.26370244  0.14248661     0.04900
C291        C  0.12607681  0.22888693  0.17348098     0.27300
C292        C  0.11789120  0.21131264  0.18959705    -0.13100
C293        C  0.14243694  0.21124188  0.20375143     0.05400
C294        C  0.17496605  0.22954081  0.20200113    -0.09100
C295        C  0.18309190  0.24720641  0.18585909     0.06200
C296        C  0.15879344  0.24668738  0.17163050    -0.13500
Br297      Br  0.08596562  0.30128044  0.17246472    -0.05500
Br298      Br  0.06391613  0.16383260  0.11723656     0.00100
Br299      Br  0.13040756  0.18786353  0.22590717     0.00500
Br300      Br  0.16987378  0.27123102  0.14967626    -0.03900
Br301      Br  0.02840039  0.30721861  0.13915591     0.00600
Br302      Br  0.12250918  0.15902042  0.15037125    -0.03200
Br303      Br  0.07220252  0.18892040  0.19256462    -0.04000
Br304      Br  0.22790937  0.27150060  0.18289424    -0.00100
C305        C  0.99902439  0.80513670  0.58310242     0.01400
C306        C  0.01504210  0.83831145  0.58648914     0.04200
C307        C  0.01225995  0.86596025  0.57394386    -0.11900
C308        C  0.99365193  0.86046629  0.55788495     0.23500
C309        C  0.97686908  0.82757443  0.55465134    -0.12500
C310        C  0.98014987  0.79970290  0.56709665     0.04900
C311        C  0.99315379  0.88887620  0.54415450     0.27300
C312        C  0.97046014  0.91823369  0.54605382    -0.13100
C313        C  0.97169630  0.94612604  0.53356120     0.05400
C314        C  0.99675347  0.94546050  0.51955369    -0.09100
C315        C  0.01693269  0.91454584  0.51676756     0.06200
C316        C  0.01572324  0.88663797  0.52922343    -0.13500
Br317      Br  0.94878905  0.82124125  0.53334711    -0.05500
Br318      Br  0.04186661  0.84546985  0.60808505     0.00100
Br319      Br  0.93691728  0.98336874  0.53493365     0.00500
Br320      Br  0.04503796  0.84527491  0.52583712    -0.03900
Br321      Br  0.95938730  0.75393546  0.56209620     0.00600
Br322      Br  0.03342432  0.91167577  0.57883260    -0.03200
Br323      Br  0.93770446  0.92004982  0.56581824    -0.04000
Br324      Br  0.04295179  0.90853203  0.49489595    -0.00100
C325        C  0.49416915  0.55806527  0.51608624     0.01400
C326        C  0.46944437  0.58601794  0.51478030     0.04200
C327        C  0.46849407  0.61285781  0.52788048    -0.11900
C328        C  0.49373887  0.61322917  0.54172488     0.23500
C329        C  0.52051250  0.58731580  0.54208069    -0.12500
C330        C  0.52099327  0.56008413  0.52923080     0.04900
C331        C  0.49226156  0.64070325  0.55597732     0.27300
C332        C  0.50674121  0.67485144  0.55311359    -0.13100
C333        C  0.50603481  0.70035334  0.56689292     0.05400
C334        C  0.49070230  0.69183185  0.58351927    -0.09100
C335        C  0.47636267  0.65771726  0.58636563     0.06200
C336        C  0.47732366  0.63217092  0.57268401    -0.13500
Br337      Br  0.55643359  0.58908867  0.56039961    -0.05500
Br338      Br  0.43991450  0.59014969  0.49396374     0.00100
Br339      Br  0.52662194  0.74673037  0.56317599     0.00500
Br340      Br  0.45898670  0.58506714  0.57693599    -0.03900
Br341      Br  0.55957988  0.52676464  0.52943924     0.00600
Br342      Br  0.43242720  0.64900192  0.52704432    -0.03200
Br343      Br  0.52815271  0.68625089  0.53042906    -0.04000
Br344      Br  0.45538815  0.64602355  0.60909028    -0.00100
C345        C  0.82528802  0.75247475  0.70748138     0.01400
C346        C  0.82335187  0.77584563  0.69266566     0.04200
C347        C  0.85000006  0.77548443  0.67949862    -0.11900
C348        C  0.87784980  0.75076958  0.68050327     0.23500
C349        C  0.87940752  0.72686439  0.69494831    -0.12500
C350        C  0.85384616  0.72830827  0.70863197     0.04900
C351        C  0.90527003  0.74981515  0.66622882     0.27300
C352        C  0.89788198  0.73288531  0.64986262    -0.13100
C353        C  0.92327766  0.73303226  0.63610808     0.05400
C354        C  0.95597987  0.75048749  0.63853123    -0.09100
C355        C  0.96369362  0.76689503  0.65498044     0.06200
C356        C  0.93841430  0.76647594  0.66883788    -0.13500
Br357      Br  0.91647282  0.69173178  0.69578953    -0.05500
Br358      Br  0.78330896  0.80709303  0.68949290     0.00100
Br359      Br  0.91357235  0.70889973  0.61394009     0.00500
Br360      Br  0.94885361  0.78901051  0.69136125    -0.03900
Br361      Br  0.85964890  0.69844597  0.72940271     0.00600
Br362      Br  0.84845788  0.80878881  0.65987860    -0.03200
Br363      Br  0.85276586  0.70972012  0.64628862    -0.04000
Br364      Br  0.00879988  0.79005875  0.65843539    -0.00100
C365        C  0.93673974  0.76135625  0.85949754     0.01400
C366        C  0.93680033  0.73293390  0.84722175     0.04200
C367        C  0.91294689  0.73272261  0.83277522    -0.11900
C368        C  0.88871991  0.76075101  0.83057522     0.23500
C369        C  0.88845149  0.78905697  0.84285462    -0.12500
C370        C  0.91199369  0.78906868  0.85743966     0.04900
C371        C  0.86377877  0.76052019  0.81522740     0.27300
C372        C  0.87366665  0.77656023  0.79897114    -0.13100
C373        C  0.85051889  0.77557272  0.78424040     0.05400
C374        C  0.81735316  0.75846443  0.78570931    -0.09100
C375        C  0.80724706  0.74283615  0.80209086     0.06200
C376        C  0.83048463  0.74374915  0.81678522    -0.13500
Br377      Br  0.85629883  0.82818019  0.83936477    -0.05500
Br378      Br  0.97007651  0.69458048  0.84985524     0.00100
Br379      Br  0.86488844  0.79642020  0.76184655     0.00500
Br380      Br  0.81688579  0.72197251  0.83909547    -0.03900
Br381      Br  0.90864923  0.82587560  0.87518465     0.00600
Br382      Br  0.91408102  0.69466038  0.81555196    -0.03200
Br383      Br  0.91927539  0.79945739  0.79694316    -0.04000
Br384      Br  0.76088407  0.72158084  0.80471793    -0.00100
C385        C  0.53675057  0.75015389  0.84867374     0.01400
C386        C  0.53109622  0.77093680  0.83330769     0.04200
C387        C  0.55736784  0.77292207  0.82001222    -0.11900
C388        C  0.58976838  0.75502634  0.82233182     0.23500
C389        C  0.59566890  0.73481195  0.83789528    -0.12500
C390        C  0.56911946  0.73229699  0.85101835     0.04900
C391        C  0.61703739  0.75617487  0.80807220     0.27300
C392        C  0.61538185  0.73169112  0.79391825    -0.13100
C393        C  0.64135318  0.73220552  0.78046054     0.05400
C394        C  0.67017065  0.75619808  0.78154507    -0.09100
C395        C  0.67144237  0.78116791  0.79565325     0.06200
C396        C  0.64440471  0.78166876  0.80859590    -0.13500
Br397      Br  0.63980494  0.70988803  0.84098724    -0.05500
Br398      Br  0.48746504  0.79683267  0.83058517     0.00100
Br399      Br  0.63563378  0.70171276  0.75994119     0.00500
Br400      Br  0.64420762  0.81781044  0.82684065    -0.03900
Br401      Br  0.57696529  0.70449491  0.87228711     0.00600
Br402      Br  0.54879723  0.79921302  0.79834112    -0.03200
Br403      Br  0.57693497  0.69780439  0.79291878    -0.04000
Br404      Br  0.71086286  0.81378464  0.79798098    -0.00100
C405        C  0.67534559  0.74859352  0.70595345     0.01400
C406        C  0.68314394  0.73126469  0.68975805     0.04200
C407        C  0.65713641  0.72867682  0.67635623    -0.11900
C408        C  0.62329159  0.74341924  0.67911816     0.23500
C409        C  0.61564732  0.76101895  0.69523887    -0.12500
C410        C  0.64157228  0.76353045  0.70866107     0.04900
C411        C  0.59613970  0.74191832  0.66480352     0.27300
C412        C  0.59554660  0.76846550  0.65156365    -0.13100
C413        C  0.56926052  0.76791124  0.63826219     0.05400
C414        C  0.54322195  0.74098034  0.63820066    -0.09100
C415        C  0.54410203  0.71409831  0.65132879     0.06200
C416        C  0.57030442  0.71478555  0.66472790    -0.13500
Br417      Br  0.56971291  0.78223929  0.69870433    -0.05500
Br418      Br  0.73006351  0.71271751  0.68559379     0.00100
Br419      Br  0.56968883  0.80348560  0.61979386     0.00500
Br420      Br  0.57025279  0.67941296  0.68338640    -0.03900
Br421      Br  0.63040436  0.78662048  0.73093860     0.00600
Br422      Br  0.66801749  0.70571407  0.65403227    -0.03200
Br423      Br  0.63037061  0.80612834  0.65202924    -0.04000
Br424      Br  0.50902808  0.67674106  0.65116240    -0.00100
C425        C  0.99438113  0.44241358  0.02235867     0.01400
C426        C  0.98599453  0.40883350  0.01492050     0.04200
C427        C  0.98333088  0.37868240  0.02600699    -0.11900
C428        C  0.99235463  0.38113342  0.04419422     0.23500
C429        C  0.00424829  0.41376975  0.05120156    -0.12500
C430        C  0.00484404  0.44438806  0.04039927     0.04900
C431        C  0.99116981  0.34912634  0.05585118     0.27300
C432        C  0.96148281  0.34267407  0.06677119    -0.13100
C433        C  0.96137322  0.31392270  0.07883630     0.05400
C434        C  0.99092605  0.29109338  0.07990431    -0.09100
C435        C  0.02059203  0.29750089  0.06878659     0.06200
C436        C  0.02060375  0.32634716  0.05677895    -0.13500
Br437      Br  0.02134121  0.41589817  0.07544129    -0.05500
Br438      Br  0.98103136  0.40308339  0.98940876     0.00100
Br439      Br  0.92183571  0.30784596  0.09488709     0.00500
Br440      Br  0.06124707  0.33543305  0.04177779    -0.03900
Br441      Br  0.02385586  0.48803454  0.04982973     0.00600
Br442      Br  0.96778460  0.33378025  0.01631951    -0.03200
Br443      Br  0.92128564  0.37392876  0.06536572    -0.04000
Br444      Br  0.06139317  0.26681104  0.06979127    -0.00100
C445        C  0.99783227  0.56484528  0.97532286     0.01400
C446        C  0.02212616  0.59324780  0.97689504     0.04200
C447        C  0.02015683  0.62241433  0.96517696    -0.11900
C448        C  0.99229336  0.62462877  0.95274069     0.23500
C449        C  0.96620468  0.59787599  0.95220592    -0.12500
C450        C  0.96880424  0.56812437  0.96346888     0.04900
C451        C  0.99096737  0.65427850  0.93970346     0.27300
C452        C  0.97186421  0.68551843  0.94349219    -0.13100
C453        C  0.96969223  0.71275198  0.93061325     0.05400
C454        C  0.98669872  0.70879303  0.91401137    -0.09100
C455        C  0.00579125  0.67758193  0.91028347     0.06200
C456        C  0.00773243  0.65033991  0.92306040    -0.13500
Br457      Br  0.92675550  0.60225780  0.93598752    -0.05500
Br458      Br  0.05464162  0.59499909  0.99664490     0.00100
Br459      Br  0.94325045  0.75536367  0.93551826     0.00500
Br460      Br  0.03269662  0.60707390  0.91769360    -0.03900
Br461      Br  0.93108360  0.53317341  0.96325339     0.00600
Br462      Br  0.05548744  0.65949441  0.96616594    -0.03200
Br463      Br  0.94842343  0.69062296  0.96619769    -0.04000
Br464      Br  0.02936544  0.67201669  0.88765049    -0.00100
C465        C  0.19251373  0.56545728  0.60937737     0.01400
C466        C  0.17521751  0.57172421  0.59291308     0.04200
C467        C  0.14801545  0.59724562  0.59171607    -0.11900
C468        C  0.13733520  0.61622584  0.60697556     0.23500
C469        C  0.15387852  0.60950462  0.62347377    -0.12500
C470        C  0.18157375  0.58457316  0.62467875     0.04900
C471        C  0.10926402  0.64391536  0.60577416     0.27300
C472        C  0.11883636  0.67995122  0.60389756    -0.13100
C473        C  0.09274117  0.70663600  0.60447707     0.05400
C474        C  0.05665787  0.69739011  0.60662294    -0.09100
C475        C  0.04703885  0.66113166  0.60798263     0.06200
C476        C  0.07328220  0.63456370  0.60767289    -0.13500
Br477      Br  0.13825416  0.63475715  0.64446114    -0.05500
Br478      Br  0.18698709  0.54397429  0.57208871     0.00100
Br479      Br  0.10709015  0.75590623  0.60374789     0.00500
Br480      Br  0.06017429  0.58524632  0.61030695    -0.03900
Br481      Br  0.20535548  0.57826506  0.64726704     0.00600
Br482      Br  0.12504545  0.60621729  0.56917645    -0.03200
Br483      Br  0.16810562  0.69261559  0.60108391    -0.04000
Br484      Br  0.99782794  0.64747521  0.60987977    -0.00100
C485        C  0.30228595  0.51097504  0.58574092     0.01400
C486        C  0.32175655  0.54190113  0.58118283     0.04200
C487        C  0.34721211  0.54092804  0.56737678    -0.11900
C488        C  0.35510971  0.50867153  0.55874000     0.23500
C489        C  0.33654069  0.47759384  0.56358460    -0.12500
C490        C  0.30981058  0.47879190  0.57673371     0.04900
C491        C  0.38343681  0.50704197  0.54482554     0.27300
C492        C  0.37514494  0.51262401  0.52671911    -0.13100
C493        C  0.40165555  0.50961751  0.51351853     0.05400
C494        C  0.43708904  0.50189207  0.51833880    -0.09100
C495        C  0.44460334  0.49392293  0.53636973     0.06200
C496        C  0.41815478  0.49720610  0.54956536    -0.13500
Br497      Br  0.34788955  0.43325671  0.55201803    -0.05500
Br498      Br  0.31579242  0.58512910  0.59467954     0.00100
Br499      Br  0.38831862  0.51390693  0.48883576     0.00500
Br500      Br  0.42894712  0.48686389  0.57418452    -0.03900
Br501      Br  0.28260763  0.43631916  0.58157680     0.00600
Br502      Br  0.37098752  0.58391516  0.56001424    -0.03200
Br503      Br  0.32699940  0.52346586  0.52004218    -0.04000
Br504      Br  0.48962056  0.47386039  0.54275629    -0.00100
C505        C  0.29520706  0.92291138  0.61496809     0.01400
C506        C  0.31410630  0.91436774  0.59927649     0.04200
C507        C  0.33758497  0.88523620  0.59901669    -0.11900
C508        C  0.34545332  0.86657520  0.61489114     0.23500
C509        C  0.32781584  0.87606632  0.63078784    -0.12500
C510        C  0.30201718  0.90321248  0.63071474     0.04900
C511        C  0.37510002  0.84009398  0.61519233     0.27300
C512        C  0.36852839  0.80319704  0.61686781    -0.13100
C513        C  0.39701078  0.77887270  0.61684873     0.05400
C514        C  0.43211224  0.79102338  0.61445384    -0.09100
C515        C  0.43865847  0.82782233  0.61306248     0.06200
C516        C  0.41044969  0.85220310  0.61380384    -0.13500
Br517      Br  0.34039243  0.85311244  0.65293340    -0.05500
Br518      Br  0.31176024  0.94538171  0.57879199     0.00100
Br519      Br  0.38828753  0.72897462  0.62105334     0.00500
Br520      Br  0.42036332  0.90256319  0.61317632    -0.03900
Br521      Br  0.27603492  0.91293186  0.65235237     0.00600
Br522      Br  0.35976875  0.87132804  0.57689505    -0.03200
Br523      Br  0.32061306  0.78579817  0.61907119    -0.04000
Br524      Br  0.48617879  0.84507832  0.60936099    -0.00100
C525        C  0.19107924  0.98419451  0.58845303     0.01400
C526        C  0.16993639  0.95459540  0.58377813     0.04200
C527        C  0.14519557  0.95719679  0.56977861    -0.11900
C528        C  0.13928474  0.99001926  0.56129710     0.23500
C529        C  0.15976682  0.01983809  0.56609591    -0.12500
C530        C  0.18533726  0.01714413  0.57972430     0.04900
C531        C  0.11095928  0.99334849  0.54760501     0.27300
C532        C  0.11806142  0.98491738  0.52968668    -0.13100
C533        C  0.09109472  0.98753841  0.51677472     0.05400
C534        C  0.05670892  0.99873408  0.52169552    -0.09100
C535        C  0.05067846  0.01003042  0.53937828     0.06200
C536        C  0.07719867  0.00598590  0.55243075    -0.13500
Br537      Br  0.15381845  0.06395830  0.55327260    -0.05500
Br538      Br  0.17153320  0.91167683  0.59783388     0.00100
Br539      Br  0.10246623  0.97780224  0.49224044     0.00500
Br540      Br  0.06736518  0.01780867  0.57697680    -0.03900
Br541      Br  0.21206899  0.05911239  0.58620349     0.00600
Br542      Br  0.12055133  0.91540402  0.56152255    -0.03200
Br543      Br  0.16509153  0.97014972  0.52291742    -0.04000
Br544      Br  0.00818415  0.03551647  0.54525795    -0.00100
C545        C  0.23417291  0.32467834  0.70589644     0.01400
C546        C  0.25401667  0.32015718  0.69008651     0.04200
C547        C  0.25562140  0.34758312  0.67728677    -0.11900
C548        C  0.23797829  0.37998793  0.68030809     0.23500
C549        C  0.21792743  0.38445974  0.69602969    -0.12500
C550        C  0.21568561  0.35677768  0.70868472     0.04900
C551        C  0.23934608  0.40860299  0.66652703     0.27300
C552        C  0.26967600  0.43034546  0.66480091    -0.13100
C553        C  0.27184316  0.45570085  0.65096223     0.05400
C554        C  0.24323058  0.46021824  0.63902879    -0.09100
C555        C  0.21258883  0.43884272  0.64100818     0.06200
C556        C  0.21080894  0.41300920  0.65461770    -0.13500
Br557      Br  0.19343472  0.42860915  0.70016607    -0.05500
Br558      Br  0.27742131  0.27559841  0.68540329     0.00100
Br559      Br  0.31373181  0.48497780  0.64878277     0.00500
Br560      Br  0.16945804  0.38295804  0.65683635    -0.03900
Br561      Br  0.18797410  0.36343029  0.73007634     0.00600
Br562      Br  0.28106735  0.34046741  0.65523798    -0.03200
Br563      Br  0.30805876  0.42564231  0.68162914    -0.04000
Br564      Br  0.17357356  0.44334724  0.62452895    -0.00100
C565        C  0.23483347  0.16984225  0.70722886     0.01400
C566        C  0.25837097  0.14113240  0.70996722     0.04200
C567        C  0.26033373  0.11340746  0.69741247    -0.11900
C568        C  0.23804185  0.11340870  0.68235985     0.23500
C569        C  0.21373586  0.14132496  0.67986871    -0.12500
C570        C  0.21260729  0.16983055  0.69204033     0.04900
C571        C  0.24091355  0.08459797  0.66886549     0.27300
C572        C  0.26733444  0.08636371  0.65556559    -0.13100
C573        C  0.26949336  0.05965273  0.64245861     0.05400
C574        C  0.24543187  0.03097426  0.64270889    -0.09100
C575        C  0.21888186  0.02933654  0.65589401     0.06200
C576        C  0.21691095  0.05581461  0.66909322    -0.13500
Br577      Br  0.18224333  0.14057807  0.65957971    -0.05500
Br578      Br  0.28708146  0.13846068  0.73128229     0.00100
Br579      Br  0.30368687  0.06358848  0.62342464     0.00500
Br580      Br  0.18125070  0.05277261  0.68745605    -0.03900
Br581      Br  0.18245491  0.20995925  0.68700419     0.00600
Br582      Br  0.29377962  0.07527997  0.70071455    -0.03200
Br583      Br  0.30012398  0.12580492  0.65518384    -0.04000
Br584      Br  0.18460612  0.99114026  0.65551499    -0.00100
C585        C  0.43382333  0.68886351  0.87543696     0.01400
C586        C  0.42467188  0.67074087  0.89138265     0.04200
C587        C  0.39746605  0.64503525  0.89133526    -0.11900
C588        C  0.38059353  0.63560962  0.87524069     0.23500
C589        C  0.39066809  0.65244833  0.85921224    -0.12500
C590        C  0.41622530  0.67979844  0.85937572     0.04900
C591        C  0.35150859  0.60878657  0.87529876     0.27300
C592        C  0.35908629  0.57246633  0.87785288    -0.13100
C593        C  0.33126014  0.54757282  0.87922093     0.05400
C594        C  0.29589804  0.55833660  0.87653168    -0.09100
C595        C  0.28858380  0.59436777  0.87300455     0.06200
C596        C  0.31606764  0.61970878  0.87314087    -0.13500
Br597      Br  0.36919702  0.63801044  0.83696100    -0.05500
Br598      Br  0.45005749  0.67950610  0.91335403     0.00100
Br599      Br  0.34159440  0.49926938  0.88586491     0.00500
Br600      Br  0.30503064  0.66954233  0.87068516    -0.03900
Br601      Br  0.42441371  0.70649797  0.83771317     0.00600
Br602      Br  0.38264383  0.62313140  0.91346630    -0.03200
Br603      Br  0.40766473  0.55684487  0.87928066    -0.04000
Br604      Br  0.24131004  0.60890002  0.86684174    -0.00100
C605        C  0.18953376  0.51017007  0.90637155     0.01400
C606        C  0.18549059  0.47946637  0.91706928     0.04200
C607        C  0.16026592  0.47872519  0.93093582    -0.11900
C608        C  0.13952701  0.50891840  0.93451719     0.23500
C609        C  0.14512360  0.54027324  0.92466607    -0.12500
C610        C  0.16948797  0.54077949  0.91042934     0.04900
C611        C  0.11076356  0.50744322  0.94809497     0.27300
C612        C  0.07586233  0.49944927  0.94276776    -0.13100
C613        C  0.04824456  0.49906984  0.95539635     0.05400
C614        C  0.05508967  0.50753497  0.97341918    -0.09100
C615        C  0.09057576  0.51303526  0.97892927     0.06200
C616        C  0.11817031  0.51366717  0.96623745    -0.13500
Br617      Br  0.11962266  0.58270184  0.93103182    -0.05500
Br618      Br  0.21568607  0.43884290  0.91336179     0.00100
Br619      Br  0.00199382  0.48284473  0.94826391     0.00500
Br620      Br  0.16636946  0.52252428  0.97360090    -0.03900
Br621      Br  0.17342820  0.58298418  0.89606269     0.00600
Br622      Br  0.15419015  0.43647762  0.94520275    -0.03200
Br623      Br  0.06622470  0.48789069  0.91814594    -0.04000
Br624      Br  0.10204965  0.51757836  0.00393123    -0.00100
C625        C  0.23472425  0.45398110  0.85150953     0.01400
C626        C  0.25919026  0.42576076  0.85162193     0.04200
C627        C  0.25878680  0.40020524  0.83789398    -0.11900
C628        C  0.23282433  0.40168549  0.82440938     0.23500
C629        C  0.20769796  0.42935444  0.82454521    -0.12500
C630        C  0.20885010  0.45561827  0.83796615     0.04900
C631        C  0.23243974  0.37460464  0.80989008     0.27300
C632        C  0.25193322  0.38053373  0.79412192    -0.13100
C633        C  0.25130242  0.35526715  0.78024864     0.05400
C634        C  0.23125179  0.32369521  0.78209573    -0.09100
C635        C  0.21197673  0.31763713  0.79797909     0.06200
C636        C  0.21286796  0.34286428  0.81187658    -0.13500
Br637      Br  0.17235314  0.43167003  0.80600915    -0.05500
Br638      Br  0.29229185  0.42117092  0.87103112     0.00100
Br639      Br  0.27683545  0.36482099  0.75842746     0.00500
Br640      Br  0.18829543  0.33346588  0.83395285    -0.03900
Br641      Br  0.17579132  0.49456363  0.83748884     0.00600
Br642      Br  0.29453688  0.36375831  0.83714651    -0.03200
Br643      Br  0.28016814  0.42311472  0.79179757    -0.04000
Br644      Br  0.18555825  0.27402432  0.80113590    -0.00100
C645        C  0.18983926  0.93359240  0.88191499     0.01400
C646        C  0.16819991  0.93549832  0.89722140     0.04200
C647        C  0.14026354  0.91099882  0.89955893    -0.11900
C648        C  0.13278714  0.88582654  0.88612855     0.23500
C649        C  0.15479039  0.88373865  0.87096793    -0.12500
C650        C  0.18414591  0.90654390  0.86928591     0.04900
C651        C  0.10188197  0.86145528  0.88771157     0.27300
C652        C  0.10709736  0.82568830  0.89242164    -0.13100
C653        C  0.07872134  0.80137288  0.89166426     0.05400
C654        C  0.04403974  0.81317920  0.88745029    -0.09100
C655        C  0.03886706  0.84951831  0.88323618     0.06200
C656        C  0.06782971  0.87326020  0.88297516    -0.13500
Br657      Br  0.14400695  0.85030969  0.85221595    -0.05500
Br658      Br  0.17621010  0.97226262  0.91469619     0.00100
Br659      Br  0.08903186  0.75147796  0.89468543     0.00500
Br660      Br  0.06127213  0.92199384  0.87559168    -0.03900
Br661      Br  0.21803708  0.89919216  0.85040732     0.00600
Br662      Br  0.11233364  0.91176110  0.92110295    -0.03200
Br663      Br  0.15366584  0.81000525  0.89956759    -0.04000
Br664      Br  0.99236525  0.86792059  0.87829685    -0.00100
C665        C  0.23660179  0.03561782  0.84795627     0.01400
C666        C  0.20905725  0.06086257  0.84813211     0.04200
C667        C  0.20739282  0.08720442  0.83477131    -0.11900
C668        C  0.23355927  0.08884254  0.82136782     0.23500
C669        C  0.26093084  0.06345501  0.82112877    -0.12500
C670        C  0.26223481  0.03671102  0.83427303     0.04900
C671        C  0.23258724  0.11760987  0.80770640     0.27300
C672        C  0.21450485  0.11235487  0.79146677    -0.13100
C673        C  0.21371502  0.13956480  0.77851983     0.05400
C674        C  0.23121578  0.17220086  0.78172626    -0.09100
C675        C  0.24890875  0.17755310  0.79810736     0.06200
C676        C  0.24949440  0.15038103  0.81105391    -0.13500
Br677      Br  0.29694273  0.06571275  0.80290965    -0.05500
Br678      Br  0.17474252  0.06067732  0.86721500     0.00100
Br679      Br  0.18978645  0.13139938  0.75612211     0.00500
Br680      Br  0.27312132  0.15805065  0.83355257    -0.03900
Br681      Br  0.29856944  0.00079358  0.83324588     0.00600
Br682      Br  0.16962753  0.12158558  0.83488990    -0.03200
Br683      Br  0.19082971  0.06769987  0.78707184    -0.04000
Br684      Br  0.27106738  0.22271966  0.80321141    -0.00100
C685        C  0.49437752  0.93761756  0.96562581     0.01400
C686        C  0.50348652  0.94011596  0.94740622     0.04200
C687        C  0.50037198  0.91033104  0.93627675    -0.11900
C688        C  0.49042168  0.87726603  0.94348863     0.23500
C689        C  0.48355516  0.87395287  0.96187024    -0.12500
C690        C  0.48575073  0.90401801  0.97297846     0.04900
C691        C  0.48812954  0.84612705  0.93152402     0.27300
C692        C  0.45533717  0.83665664  0.92396850    -0.13100
C693        C  0.45393855  0.81165205  0.91004917     0.05400
C694        C  0.48529957  0.79477975  0.90423117    -0.09100
C695        C  0.51785768  0.80276280  0.91270926     0.06200
C696        C  0.51931634  0.82890560  0.92604896    -0.13500
Br697      Br  0.47120663  0.82816866  0.97171703    -0.05500
Br698      Br  0.52459912  0.98270967  0.93797216     0.00100
Br699      Br  0.40946843  0.80352677  0.89798138     0.00500
Br700      Br  0.56433598  0.84255985  0.93626805    -0.03900
Br701      Br  0.47848764  0.89849024  0.99835779     0.00600
Br702      Br  0.50998881  0.91456592  0.91101704    -0.03200
Br703      Br  0.41261561  0.85939966  0.93224963    -0.04000
Br704      Br  0.56069246  0.77762516  0.90654988    -0.00100
C705        C  0.49841874  0.05824961  0.01374271     0.01400
C706        C  0.47018946  0.06130477  0.02607381     0.04200
C707        C  0.47094794  0.08805696  0.03917617    -0.11900
C708        C  0.49973951  0.11185650  0.04004573     0.23500
C709        C  0.52689408  0.11004394  0.02721664    -0.12500
C710        C  0.52536955  0.08432010  0.01363842     0.04900
C711        C  0.50066949  0.13977176  0.05400125     0.27300
C712        C  0.48525846  0.17320698  0.05070259    -0.13100
C713        C  0.48606140  0.19966214  0.06394841     0.05400
C714        C  0.50210261  0.19266686  0.08052782    -0.09100
C715        C  0.51750545  0.15927860  0.08384119     0.06200
C716        C  0.51672153  0.13281965  0.07060511    -0.13500
Br717      Br  0.56618684  0.14288231  0.02832455    -0.05500
Br718      Br  0.42974993  0.02971728  0.02488531     0.00100
Br719      Br  0.46453871  0.24527357  0.05961382     0.00500
Br720      Br  0.53724419  0.08689109  0.07521721    -0.03900
Br721      Br  0.55711470  0.08814175  0.99364387     0.00600
Br722      Br  0.43255250  0.09231686  0.05602334    -0.03200
Br723      Br  0.46255655  0.18240439  0.02812521    -0.04000
Br724      Br  0.54035392  0.15012398  0.10638212    -0.00100
C725        C  0.44187459  0.99723575  0.96234011     0.01400
C726        C  0.44311922  0.02107180  0.94776525     0.04200
C727        C  0.41766179  0.01868884  0.93411883    -0.11900
C728        C  0.38951404  0.99426570  0.93559854     0.23500
C729        C  0.38683242  0.97218832  0.95070605    -0.12500
C730        C  0.41265323  0.97403089  0.96417152     0.04900
C731        C  0.36067953  0.99397730  0.92223205     0.27300
C732        C  0.32980138  0.01388318  0.92546389    -0.13100
C733        C  0.30073738  0.01094382  0.91387504     0.05400
C734        C  0.30273418  0.98864124  0.89886442    -0.09100
C735        C  0.33379810  0.96921296  0.89540839     0.06200
C736        C  0.36290051  0.97201372  0.90706507    -0.13500
Br737      Br  0.34707598  0.94003618  0.95304800    -0.05500
Br738      Br  0.47798701  0.05877491  0.94701089     0.00100
Br739      Br  0.25767109  0.03655848  0.91882776     0.00500
Br740      Br  0.40573548  0.94580157  0.90243188    -0.03900
Br741      Br  0.40521295  0.94828223  0.98604919     0.00600
Br742      Br  0.42112135  0.04890194  0.91339392    -0.03200
Br743      Br  0.32733904  0.04489317  0.94591884    -0.04000
Br744      Br  0.33595922  0.93815553  0.87499573    -0.00100
C745        C  0.93807492  0.18235322  0.10691059     0.01400
C746        C  0.92585067  0.16559001  0.09113089     0.04200
C747        C  0.89812904  0.14030201  0.09185295    -0.11900
C748        C  0.88337160  0.13010603  0.10836692     0.23500
C749        C  0.89637547  0.14560440  0.12418810    -0.12500
C750        C  0.92302037  0.17202889  0.12349414     0.04900
C751        C  0.85414225  0.10313846  0.10907751     0.27300
C752        C  0.81879705  0.11398087  0.11172902    -0.13100
C753        C  0.79133839  0.08852925  0.11274503     0.05400
C754        C  0.79845763  0.05223557  0.10973322    -0.09100
C755        C  0.83382309  0.04138312  0.10710539     0.06200
C756        C  0.86159951  0.06661559  0.10716588    -0.13500
Br757      Br  0.87771218  0.13012280  0.14691290    -0.05500
Br758      Br  0.94860367  0.17482907  0.06852275     0.00100
Br759      Br  0.74466965  0.10320213  0.11989406     0.00500
Br760      Br  0.91002295  0.05121990  0.10467226    -0.03900
Br761      Br  0.93725642  0.19483369  0.14546035     0.00600
Br762      Br  0.88006355  0.11940464  0.07014874    -0.03200
Br763      Br  0.80792287  0.16389706  0.11362660    -0.04000
Br764      Br  0.84426265  0.99197740  0.10304781    -0.00100
C765        C  0.69157117  0.00143808  0.08066616     0.01400
C766        C  0.68252818  0.96934714  0.07183953     0.04200
C767        C  0.65601166  0.96908435  0.05857052    -0.11900
C768        C  0.63857111  0.00075193  0.05389232     0.23500
C769        C  0.64827907  0.03283197  0.06216222    -0.12500
C770        C  0.67402202  0.03310902  0.07574060     0.04900
C771        C  0.60953959  0.00032357  0.04048839     0.27300
C772        C  0.61717062  0.00562249  0.02229296    -0.13100
C773        C  0.58966754  0.00529191  0.00960776     0.05400
C774        C  0.55412381  0.00071221  0.01515800    -0.09100
C775        C  0.54689272  0.99319700  0.03324547     0.06200
C776        C  0.57438502  0.99377478  0.04592177    -0.13500
Br777      Br  0.62629948  0.07657396  0.05467290    -0.05500
Br778      Br  0.70678461  0.92560599  0.07739611     0.00100
Br779      Br  0.60123743  0.00914569  0.98455610     0.00500
Br780      Br  0.56409615  0.98477807  0.07073996    -0.03900
Br781      Br  0.68234484  0.07666370  0.08847131     0.00600
Br782      Br  0.64363124  0.92548739  0.04648440    -0.03200
Br783      Br  0.66555198  0.01286147  0.01482611    -0.04000
Br784      Br  0.50033224  0.97767310  0.04037039    -0.00100
C785        C  0.68687983  0.43729730  0.10803998     0.01400
C786        C  0.68045340  0.41549489  0.12308711     0.04200
C787        C  0.65384068  0.38916576  0.12256258    -0.11900
C788        C  0.63451139  0.38315459  0.10676574     0.23500
C789        C  0.64145374  0.40418571  0.09157290    -0.12500
C790        C  0.66712498  0.43153622  0.09226675     0.04900
C791        C  0.60668133  0.35490741  0.10623238     0.27300
C792        C  0.61606155  0.31924796  0.10312256    -0.13100
C793        C  0.59003494  0.29227241  0.10359774     0.05400
C794        C  0.55394505  0.30099484  0.10627661    -0.09100
C795        C  0.54446973  0.33708858  0.10818880     0.06200
C796        C  0.57082154  0.36370544  0.10884674    -0.13500
Br797      Br  0.61521301  0.39562807  0.06989443    -0.05500
Br798      Br  0.70924549  0.42026372  0.14426986     0.00100
Br799      Br  0.60457922  0.24332987  0.10116642     0.00500
Br800      Br  0.55794670  0.41243107  0.11340823    -0.03900
Br801      Br  0.67343156  0.46234520  0.07191463     0.00600
Br802      Br  0.64308431  0.36180120  0.14367667    -0.03200
Br803      Br  0.66471707  0.30756322  0.09796163    -0.04000
Br804      Br  0.49543023  0.35086767  0.10804580    -0.00100
C805        C  0.79469851  0.49826630  0.08596587     0.01400
C806        C  0.82676760  0.48038833  0.08928920     0.04200
C807        C  0.85527597  0.48370679  0.07727317    -0.11900
C808        C  0.85167019  0.50428062  0.06167188     0.23500
C809        C  0.81971092  0.52245056  0.05839984    -0.12500
C810        C  0.79140525  0.51970031  0.07062253     0.04900
C811        C  0.88113899  0.50537909  0.04847691     0.27300
C812        C  0.90885949  0.53024743  0.05025982    -0.13100
C813        C  0.93802124  0.52931875  0.03851710     0.05400
C814        C  0.94011238  0.50271137  0.02517120    -0.09100
C815        C  0.91072207  0.48001091  0.02250567     0.06200
C816        C  0.88168899  0.48093378  0.03428428    -0.13500
Br817      Br  0.81481254  0.55081794  0.03710736    -0.05500
Br818      Br  0.83157057  0.45113308  0.11026248     0.00100
Br819      Br  0.97362173  0.56628130  0.04009048     0.00500
Br820      Br  0.84177357  0.44959349  0.03064577    -0.03900
Br821      Br  0.74807716  0.54534568  0.06646371     0.00600
Br822      Br  0.89955702  0.46026227  0.08212978    -0.03200
Br823      Br  0.90620657  0.56613313  0.06856961    -0.04000
Br824      Br  0.90750978  0.45125587  0.00137492    -0.00100
C825        C  0.80107951  0.43140501  0.37849350     0.01400
C826        C  0.81657030  0.42151959  0.39497600     0.04200
C827        C  0.84304198  0.39518125  0.39553382    -0.11900
C828        C  0.85577819  0.38002796  0.37960472     0.23500
C829        C  0.84125016  0.39058689  0.36313611    -0.12500
C830        C  0.81308307  0.41499440  0.36260790     0.04900
C831        C  0.88474671  0.35329254  0.38004985     0.27300
C832        C  0.92019478  0.36428606  0.38246456    -0.13100
C833        C  0.94767243  0.33908836  0.38230906     0.05400
C834        C  0.93997618  0.30301344  0.37905887    -0.09100
C835        C  0.90460378  0.29199493  0.37662969     0.06200
C836        C  0.87699396  0.31693060  0.37754565    -0.13500
Br837      Br  0.86107357  0.37253942  0.34119187    -0.05500
Br838      Br  0.80381632  0.44553269  0.41679082     0.00100
Br839      Br  0.99556987  0.35379633  0.38734809     0.00500
Br840      Br  0.82849198  0.30116897  0.37562898    -0.03900
Br841      Br  0.78987509  0.42387489  0.34006270     0.00600
Br842      Br  0.86252239  0.38012557  0.41812142    -0.03200
Br843      Br  0.93108636  0.41394760  0.38588992    -0.04000
Br844      Br  0.89416561  0.24287588  0.37119687    -0.00100
C845        C  0.69050796  0.48585665  0.40152557     0.01400
C846        C  0.68021974  0.51873940  0.40914500     0.04200
C847        C  0.65111073  0.52030108  0.42084225    -0.11900
C848        C  0.63311090  0.48899771  0.42574775     0.23500
C849        C  0.64387845  0.45610771  0.41867497    -0.12500
C850        C  0.67185174  0.45457051  0.40625834     0.04900
C851        C  0.60412728  0.49061200  0.43912952     0.27300
C852        C  0.61171704  0.48465803  0.45725906    -0.13100
C853        C  0.58434449  0.48561499  0.47002146     0.05400
C854        C  0.54944253  0.49467035  0.46486216    -0.09100
C855        C  0.54316133  0.50481468  0.44700834     0.06200
C856        C  0.56974776  0.50074896  0.43400974    -0.13500
Br857      Br  0.62068015  0.41301899  0.42636990    -0.05500
Br858      Br  0.70705150  0.56175552  0.40479360     0.00100
Br859      Br  0.59570187  0.47621116  0.49459274     0.00500
Br860      Br  0.55953776  0.51041465  0.40925766    -0.03900
Br861      Br  0.68289280  0.40965114  0.39516626     0.00600
Br862      Br  0.63614797  0.56533937  0.43060029    -0.03200
Br863      Br  0.66021003  0.47720625  0.46457206    -0.04000
Br864      Br  0.50066719  0.52995010  0.44086463    -0.00100
C865        C  0.72977043  0.82400061  0.20777848     0.01400
C866        C  0.71231434  0.81606016  0.19159316     0.04200
C867        C  0.71100936  0.84153495  0.17780100    -0.11900
C868        C  0.72818904  0.87458871  0.17983272     0.23500
C869        C  0.74467007  0.88297911  0.19618369    -0.12500
C870        C  0.74493709  0.85800486  0.21021425     0.04900
C871        C  0.72990575  0.90010232  0.16463125     0.27300
C872        C  0.75615746  0.89620067  0.15137794    -0.13100
C873        C  0.75856413  0.92087500  0.13728088     0.05400
C874        C  0.73564973  0.95029895  0.13672060    -0.09100
C875        C  0.70873610  0.95365936  0.14964008     0.06200
C876        C  0.70556107  0.92833258  0.16342426    -0.13500
Br877      Br  0.76721227  0.92867199  0.19923467    -0.05500
Br878      Br  0.69172471  0.76967196  0.18786771     0.00100
Br879      Br  0.79183652  0.91331953  0.11815214     0.00500
Br880      Br  0.66749173  0.93172812  0.18047258    -0.03900
Br881      Br  0.76464714  0.87106162  0.23305385     0.00600
Br882      Br  0.68557700  0.83142691  0.15606435    -0.03200
Br883      Br  0.78874317  0.85690228  0.15252555    -0.04000
Br884      Br  0.67649040  0.99324107  0.14850674    -0.00100
C885        C  0.73523766  0.54068157  0.14024285     0.01400
C886        C  0.76388667  0.54168909  0.15233887     0.04200
C887        C  0.76417364  0.56639066  0.16645050    -0.11900
C888        C  0.73607190  0.59059007  0.16846409     0.23500
C889        C  0.70663454  0.58851260  0.15691527    -0.12500
C890        C  0.70595786  0.56327961  0.14299680     0.04900
C891        C  0.73781234  0.61848101  0.18257151     0.27300
C892        C  0.72266740  0.61235423  0.19948611    -0.13100
C893        C  0.72477541  0.63863100  0.21285899     0.05400
C894        C  0.74104041  0.67174179  0.20922247    -0.09100
C895        C  0.75694864  0.67749233  0.19239771     0.06200
C896        C  0.75541817  0.65089890  0.17916464    -0.13500
Br897      Br  0.66746708  0.62064169  0.16012114    -0.05500
Br898      Br  0.80193937  0.50787278  0.15020890     0.00100
Br899      Br  0.70769018  0.62816840  0.23657157     0.00500
Br900      Br  0.77722713  0.65883566  0.15621147    -0.03900
Br901      Br  0.66516583  0.56026800  0.12754613     0.00600
Br902      Br  0.80288714  0.56695907  0.18324148    -0.03200
Br903      Br  0.69904935  0.56779839  0.20423584    -0.04000
Br904      Br  0.78004927  0.72214088  0.18717567    -0.00100
C905        C  0.74835160  0.67742109  0.28591673     0.01400
C906        C  0.77336777  0.64960053  0.28490497     0.04200
C907        C  0.77605593  0.62469183  0.29887714    -0.11900
C908        C  0.75306211  0.62659999  0.31364313     0.23500
C909        C  0.72864505  0.65465466  0.31490263    -0.12500
C910        C  0.72661532  0.68031455  0.30124546     0.04900
C911        C  0.75218199  0.59710627  0.32684266     0.27300
C912        C  0.72928865  0.56800997  0.32391423    -0.13100
C913        C  0.72977811  0.53873054  0.33556865     0.05400
C914        C  0.75186578  0.53918974  0.35068219    -0.09100
C915        C  0.77377661  0.56878553  0.35404615     0.06200
C916        C  0.77424836  0.59760059  0.34203369    -0.13500
Br917      Br  0.69730999  0.65713156  0.33521103    -0.05500
Br918      Br  0.80227778  0.64357037  0.26385485     0.00100
Br919      Br  0.70069307  0.49762923  0.33070877     0.00500
Br920      Br  0.80408084  0.63818547  0.34668202    -0.03900
Br921      Br  0.69483284  0.72003194  0.30408263     0.00600
Br922      Br  0.81066767  0.58715666  0.29766022    -0.03200
Br923      Br  0.69609300  0.56911833  0.30434767    -0.04000
Br924      Br  0.80198155  0.57017859  0.37552019    -0.00100
C925        C  0.69878949  0.06749956  0.37917589     0.01400
C926        C  0.68600562  0.08145349  0.36278957     0.04200
C927        C  0.66003754  0.10832638  0.36265826    -0.11900
C928        C  0.64782650  0.12315204  0.37874647     0.23500
C929        C  0.66125743  0.11033508  0.39507798    -0.12500
C930        C  0.68571207  0.08193363  0.39535219     0.04900
C931        C  0.61897622  0.15033656  0.37841267     0.27300
C932        C  0.62675760  0.18666527  0.37570740    -0.13100
C933        C  0.59909940  0.21179336  0.37455914     0.05400
C934        C  0.56342300  0.20084134  0.37628109    -0.09100
C935        C  0.55577023  0.16451150  0.37909833     0.06200
C936        C  0.58335263  0.13940090  0.37995208    -0.13500
Br937      Br  0.64556378  0.13164288  0.41709839    -0.05500
Br938      Br  0.70461411  0.06533559  0.34017999     0.00100
Br939      Br  0.61004342  0.26093120  0.36958861     0.00500
Br940      Br  0.57239019  0.08957599  0.38267923    -0.03900
Br941      Br  0.69836422  0.06100278  0.41799177     0.00600
Br942      Br  0.64017756  0.12442018  0.34033794    -0.03200
Br943      Br  0.67534041  0.20175507  0.37309282    -0.04000
Br944      Br  0.50751837  0.14900476  0.38245081    -0.00100
C945        C  0.81032376  0.01281528  0.40168595     0.01400
C946        C  0.83112638  0.04379976  0.40401374     0.04200
C947        C  0.85976913  0.04384720  0.41610265    -0.11900
C948        C  0.86846781  0.01276991  0.42557636     0.23500
C949        C  0.84910153  0.98130814  0.42257330    -0.12500
C950        C  0.82004052  0.98126224  0.41078754     0.04900
C951        C  0.89663993  0.01326721  0.43946063     0.27300
C952        C  0.93148069  0.00300564  0.43525346    -0.13100
C953        C  0.95693269  0.99947478  0.44888178     0.05400
C954        C  0.94832727  0.00817597  0.46668291    -0.09100
C955        C  0.91296437  0.01713649  0.47092319     0.06200
C956        C  0.88749693  0.02039311  0.45730936    -0.13500
Br957      Br  0.86234372  0.93827759  0.43495166    -0.05500
Br958      Br  0.82223556  0.08558017  0.38978989     0.00100
Br959      Br  0.00169101  0.97763857  0.44351875     0.00500
Br960      Br  0.83963699  0.03420046  0.46305061    -0.03900
Br961      Br  0.79311834  0.93784720  0.40790488     0.00600
Br962      Br  0.88715763  0.08649229  0.41986078    -0.03200
Br963      Br  0.94396813  0.99307051  0.41081920    -0.04000
Br964      Br  0.89814801  0.02224968  0.49540483    -0.00100
C965        C  0.73714798  0.82384323  0.28505567     0.01400
C966        C  0.71615487  0.85473222  0.28383331     0.04200
C967        C  0.71728375  0.88035617  0.29752617    -0.11900
C968        C  0.73871475  0.87489649  0.31267538     0.23500
C969        C  0.75854325  0.84345335  0.31425885    -0.12500
C970        C  0.75787522  0.81802915  0.30049013     0.04900
C971        C  0.74118081  0.90271843  0.32669612     0.27300
C972        C  0.76791620  0.92885229  0.32566542    -0.13100
C973        C  0.77004866  0.95564979  0.33870763     0.05400
C974        C  0.74489266  0.95694942  0.35261653    -0.09100
C975        C  0.71838192  0.93057025  0.35376657     0.06200
C976        C  0.71697873  0.90309382  0.34101923    -0.13500
Br977      Br  0.78654191  0.83539770  0.33541482    -0.05500
Br978      Br  0.68649191  0.86262459  0.26324392     0.00100
Br979      Br  0.80714569  0.99098521  0.33729341     0.00500
Br980      Br  0.68294733  0.86508085  0.34348412    -0.03900
Br981      Br  0.78397574  0.77436131  0.30333494     0.00600
Br982      Br  0.68996094  0.92339311  0.29548616    -0.03200
Br983      Br  0.80187015  0.92751870  0.30642843    -0.04000
Br984      Br  0.68487998  0.93133781  0.37319284    -0.00100
loop_ 
_geom_bond_atom_site_label_1 
_geom_bond_atom_site_label_2 
_geom_bond_distance 
_geom_bond_site_symmetry_2 
_ccdc_geom_bond_type 
C1            N2   1.358   1_565  A
C1            N6   1.354       .  A
C1          C974   1.477       .  S
N2            C3   1.362       .  A
C3            N4   1.366       .  A
C3          C925   1.501       .  S
N4            C5   1.366       .  A
C5            N6   1.356   1_545  A
C5          C945   1.490       .  S
O7          Ni15   1.923       .  S
O7           C17   1.282       .  A
O8          Ni15   1.922       .  S
O8           C18   1.282       .  A
O9          Ni15   1.925       .  S
O9           C19   1.282       .  A
O10         Ni15   1.920       .  S
O10          C20   1.282       .  A
O11         Ni16   1.918       .  S
O11          C20   1.281       .  A
O12         Ni16   1.923       .  S
O12          C19   1.282       .  A
O13         Ni16   1.919       .  S
O13          C18   1.282       .  A
O14         Ni16   1.927       .  S
O14          C17   1.283       .  A
Ni15        Ni16   2.387       .  S
C17         C894   1.487       .  S
C18         C965   1.482       .  S
C19         C865   1.484       .  S
C20         C905   1.486       .  S
C21          N22   1.357       .  A
C21          N26   1.353       .  A
C21         C914   1.470       .  S
N22          C23   1.361       .  A
C23          N24   1.363       .  A
C23         C825   1.491       .  S
N24          C25   1.362       .  A
C25          N26   1.355       .  A
C25         C845   1.487       .  S
C27          N28   1.358       .  A
C27          N32   1.359       .  A
C27         C885   1.484       .  S
N28          C29   1.361       .  A
C29          N30   1.363       .  A
C29         C785   1.489       .  S
N30          C31   1.362       .  A
C31          N32   1.359       .  A
C31         C805   1.480       .  S
C33          N34   1.357       .  A
C33          N38   1.361   1_565  A
C33         C874   1.478       .  S
N34          C35   1.358   1_565  A
C35          N36   1.365       .  A
C35         C765   1.492       .  S
N36          C37   1.364       .  A
C37          N38   1.361       .  A
C37         C754   1.489       .  S
C39         C774   1.489       .  S
C39          C40   1.421       .  A
C39          C44   1.402   1_544  A
C40         C705   1.491       .  S
C40          C41   1.403   1_554  A
C41          C42   1.402   1_545  A
C41          H46   1.085       .  S
C42         C725   1.487       .  S
C42          C43   1.418       .  A
C43         C685   1.488       .  S
C43          C44   1.400       .  A
C44          H45   1.085       .  S
C47          N48   1.357       .  A
C47          N52   1.360   1_545  A
C47         C665   1.480       .  S
N48          C49   1.356   1_545  A
C49          N50   1.357       .  A
C49         C734   1.467       .  S
N50          C51   1.357       .  A
C51          N52   1.361       .  A
C51         C645   1.474       .  S
C53          N54   1.360       .  A
C53          N58   1.360       .  A
C53         C625   1.482       .  S
N54          C55   1.362       .  A
C55          N56   1.361       .  A
C55         C605   1.487       .  S
N56          C57   1.361       .  A
C57          N58   1.360       .  A
C57         C594   1.481       .  S
O59         Ni67   1.920       .  S
O59          C69   1.281       .  A
O60         Ni67   1.922       .  S
O60          C70   1.282       .  A
O61         Ni67   1.915       .  S
O61          C71   1.281       .  A
O62         Ni67   1.918       .  S
O62          C72   1.281       .  A
O63         Ni68   1.924       .  S
O63          C72   1.283       .  A
O64         Ni68   1.923       .  S
O64          C71   1.282       .  A
O65         Ni68   1.922       .  S
O65          C70   1.282       .  A
O66         Ni68   1.924       .  S
O66          C69   1.282       .  A
Ni67        Ni68   2.387       .  S
C69         C545   1.484       .  S
C70         C674   1.483       .  S
C71         C565   1.486       .  S
C72         C634   1.484       .  S
C73          N74   1.353       .  A
C73          N78   1.360   1_545  A
C73         C574   1.473       .  S
N74          C75   1.354   1_545  A
C75          N76   1.365       .  A
C75         C525   1.488       .  S
N76          C77   1.366       .  A
C77          N78   1.363       .  A
C77         C505   1.497       .  S
C79          N80   1.359       .  A
C79          N84   1.361       .  A
C79         C554   1.487       .  S
N80          C81   1.359       .  A
C81          N82   1.362       .  A
C81         C465   1.492       .  S
N82          C83   1.362       .  A
C83          N84   1.361       .  A
C83         C485   1.495       .  S
C85         C814   1.494       .  S
C85          C86   1.423       .  A
C85          C90   1.398       .  A
C86         C425   1.491       .  S
C86          C87   1.407   1_654  A
C87          C88   1.405       .  A
C87          H92   1.085       .  S
C88         C614   1.494       .  S
C88          C89   1.421   1_455  A
C89         C445   1.487       .  S
C89          C90   1.399   1_556  A
C90          H91   1.085       .  S
O93        Ni101   1.922       .  S
O93         C103   1.282       .  A
O94        Ni101   1.919       .  S
O94         C104   1.281       .  A
O95        Ni101   1.913       .  S
O95         C105   1.280       .  A
O96        Ni101   1.917       .  S
O96         C106   1.281       .  A
O97        Ni102   1.922       .  S
O97         C106   1.283       .  A
O98        Ni102   1.919       .  S
O98         C105   1.282       .  A
O99        Ni102   1.913       .  S
O99         C104   1.280       .  A
O100       Ni102   1.917       .  S
O100        C103   1.281       .  A
Ni101      Ni102   2.388       .  S
C103        C374   1.479       .  S
C104        C405   1.474       .  S
C105        C394   1.482       .  S
C106        C345   1.489       .  S
C107        N108   1.359       .  A
C107        N112   1.354       .  A
C107        C385   1.472       .  S
N108        C109   1.361       .  A
C109        N110   1.359       .  A
C109        C585   1.489       .  S
N110        C111   1.357       .  A
C111        N112   1.357       .  A
C111        C694   1.480       .  S
C113        N114   1.360       .  A
C113        N118   1.363       .  A
C113        C365   1.482       .  S
N114        C115   1.358       .  A
C115        N116   1.356   1_655  A
C115        C454   1.473       .  S
N116        C117   1.358       .  A
C117        N118   1.363   1_455  A
C117        C654   1.494       .  S
C119        N120   1.361       .  A
C119        N124   1.359       .  A
C119        C414   1.479       .  S
N120        C121   1.361       .  A
C121        N122   1.361       .  A
C121        C514   1.487       .  S
N122        C123   1.360       .  A
C123        N124   1.359       .  A
C123        C334   1.477       .  S
C125        N126   1.358   1_655  A
C125        N130   1.358       .  A
C125        C354   1.477       .  S
N126        C127   1.361       .  A
C127        N128   1.361       .  A
C127        C474   1.487       .  S
N128        C129   1.360       .  A
C129        N130   1.359   1_455  A
C129        C305   1.476   1_455  S
C131        N132   1.357       .  A
C131        N136   1.360   1_455  A
C131        C285   1.484       .  S
N132        C133   1.358   1_455  A
C133        N134   1.364       .  A
C133        C434   1.486       .  S
N134        C135   1.364       .  A
C135        N136   1.360       .  A
C135        C745   1.500       .  S
C137        N138   1.356       .  A
C137        N142   1.364       .  A
C137        C265   1.479       .  S
N138        C139   1.355       .  A
C139        N140   1.356       .  A
C139        C714   1.471       .  S
N140        C141   1.359       .  A
C141        N142   1.365       .  A
C141        C794   1.491       .  S
O143       Ni151   1.914       .  S
O143        C153   1.281       .  A
O144       Ni151   1.916       .  S
O144        C154   1.281       .  A
O145       Ni151   1.912       .  S
O145        C155   1.279       .  A
O146       Ni151   1.909       .  S
O146        C156   1.279       .  A
O147       Ni152   1.922       .  S
O147        C156   1.282       .  A
O148       Ni152   1.924       .  S
O148        C155   1.283       .  A
O149       Ni152   1.916       .  S
O149        C154   1.281       .  A
O150       Ni152   1.916       .  S
O150        C153   1.280       .  A
Ni151      Ni152   2.390       .  S
C153        C245   1.474       .  S
C154        C294   1.478       .  S
C155        C234   1.481       .  S
C156        C274   1.474       .  S
C157        N158   1.359   1_455  A
C157        N162   1.357       .  A
C157        C225   1.473       .  S
N158        C159   1.359       .  A
C159        N160   1.357       .  A
C159        C834   1.474       .  S
N160        C161   1.356       .  A
C161        N162   1.356   1_655  A
C161        C205   1.468       .  S
C163        N164   1.355       .  A
C163        N168   1.360       .  A
C163        C254   1.473       .  S
N164        C165   1.355       .  A
C165        N166   1.362       .  A
C165        C185   1.475       .  S
N166        C167   1.363       .  A
C167        N168   1.362       .  A
C167        C934   1.489       .  S
C169        C214   1.486       .  S
C169        C170   1.420   1_455  A
C169        C174   1.404       .  A
C170        C954   1.494       .  S
C170        C171   1.402   1_545  A
C171        C172   1.403       .  A
C171        H176   1.084       .  S
C172        C314   1.485       .  S
C172        C173   1.421   1_665  A
C173        C534   1.494   1_545  S
C173        C174   1.403       .  A
C174        H175   1.084       .  S
C177        C854   1.496       .  S
C177        C178   1.422       .  A
C177        C182   1.404       .  A
C178        C194   1.497       .  S
C178        C179   1.409       .  A
C179        C180   1.409       .  A
C179        H184   1.108       .  S
C180        C494   1.503       .  S
C180        C181   1.424       .  A
C181        C325   1.496       .  S
C181        C182   1.406       .  A
C182        H183   1.108       .  S
C185        C186   1.409       .  A
C185        C190   1.408       .  A
C186        C187   1.408       .  A
C186       Br198   1.930       .  S
C187        C188   1.410       .  A
C187       Br202   1.928       .  S
C188        C191   1.488       .  S
C188        C189   1.409       .  A
C189        C190   1.408       .  A
C189       Br197   1.925       .  S
C190       Br201   1.928       .  S
C191        C192   1.407       .  A
C191        C196   1.408       .  A
C192        C193   1.409       .  A
C192       Br203   1.929       .  S
C193        C194   1.415       .  A
C193       Br199   1.924       .  S
C194        C195   1.412       .  A
C195        C196   1.409       .  A
C195       Br204   1.923       .  S
C196       Br200   1.931       .  S
C205        C206   1.408   1_655  A
C205        C210   1.408       .  A
C206        C207   1.404       .  A
C206       Br218   1.930       .  S
C207        C208   1.409       .  A
C207       Br222   1.931       .  S
C208        C211   1.478       .  S
C208        C209   1.408   1_455  A
C209        C210   1.404       .  A
C209       Br217   1.929       .  S
C210       Br221   1.927       .  S
C211        C212   1.407       .  A
C211        C216   1.407   1_455  A
C212        C213   1.406       .  A
C212       Br223   1.932       .  S
C213        C214   1.414       .  A
C213       Br219   1.926       .  S
C214        C215   1.409   1_455  A
C215        C216   1.402       .  A
C215       Br224   1.923       .  S
C216       Br220   1.931       .  S
C225        C226   1.410       .  A
C225        C230   1.410       .  A
C226        C227   1.406       .  A
C226       Br238   1.926       .  S
C227        C228   1.408       .  A
C227       Br242   1.929       .  S
C228        C231   1.481       .  S
C228        C229   1.408       .  A
C229        C230   1.406       .  A
C229       Br237   1.930       .  S
C230       Br241   1.928       .  S
C231        C232   1.406       .  A
C231        C236   1.408       .  A
C232        C233   1.407       .  A
C232       Br243   1.931       .  S
C233        C234   1.415       .  A
C233       Br239   1.930       .  S
C234        C235   1.414       .  A
C235        C236   1.407       .  A
C235       Br244   1.932       .  S
C236       Br240   1.931       .  S
C245        C246   1.413       .  A
C245        C250   1.411       .  A
C246        C247   1.407       .  A
C246       Br258   1.931       .  S
C247        C248   1.408       .  A
C247       Br262   1.930       .  S
C248        C251   1.480       .  S
C248        C249   1.407       .  A
C249        C250   1.405       .  A
C249       Br257   1.930       .  S
C250       Br261   1.931       .  S
C251        C252   1.408       .  A
C251        C256   1.408       .  A
C252        C253   1.406       .  A
C252       Br263   1.931       .  S
C253        C254   1.409       .  A
C253       Br259   1.926       .  S
C254        C255   1.410       .  A
C255        C256   1.407       .  A
C255       Br264   1.929       .  S
C256       Br260   1.930       .  S
C265        C266   1.410       .  A
C265        C270   1.412       .  A
C266        C267   1.407       .  A
C266       Br278   1.925       .  S
C267        C268   1.408       .  A
C267       Br282   1.930       .  S
C268        C271   1.482       .  S
C268        C269   1.407       .  A
C269        C270   1.408       .  A
C269       Br277   1.931       .  S
C270       Br281   1.926       .  S
C271        C272   1.408       .  A
C271        C276   1.409       .  A
C272        C273   1.404       .  A
C272       Br283   1.931       .  S
C273        C274   1.411       .  A
C273       Br279   1.931       .  S
C274        C275   1.412       .  A
C275        C276   1.409       .  A
C275       Br284   1.931       .  S
C276       Br280   1.929       .  S
C285        C286   1.412       .  A
C285        C290   1.415       .  A
C286        C287   1.409       .  A
C286       Br298   1.931       .  S
C287        C288   1.410       .  A
C287       Br302   1.930       .  S
C288        C291   1.487       .  S
C288        C289   1.409       .  A
C289        C290   1.408       .  A
C289       Br297   1.933       .  S
C290       Br301   1.930       .  S
C291        C292   1.410       .  A
C291        C296   1.410       .  A
C292        C293   1.409       .  A
C292       Br303   1.930       .  S
C293        C294   1.412       .  A
C293       Br299   1.932       .  S
C294        C295   1.413       .  A
C295        C296   1.407       .  A
C295       Br304   1.933       .  S
C296       Br300   1.931       .  S
C305        C306   1.409   1_655  A
C305        C310   1.410       .  A
C306        C307   1.406       .  A
C306       Br318   1.928       .  S
C307        C308   1.409   1_455  A
C307       Br322   1.930       .  S
C308        C311   1.484       .  S
C308        C309   1.410       .  A
C309        C310   1.409       .  A
C309       Br317   1.931       .  S
C310       Br321   1.927       .  S
C311        C312   1.408       .  A
C311        C316   1.409   1_655  A
C312        C313   1.407       .  A
C312       Br323   1.931       .  S
C313        C314   1.413       .  A
C313       Br319   1.927       .  S
C314        C315   1.409   1_655  A
C315        C316   1.405       .  A
C315       Br324   1.925       .  S
C316       Br320   1.930       .  S
C325        C326   1.412       .  A
C325        C330   1.415       .  A
C326        C327   1.410       .  A
C326       Br338   1.924       .  S
C327        C328   1.409       .  A
C327       Br342   1.929       .  S
C328        C331   1.489       .  S
C328        C329   1.407       .  A
C329        C330   1.407       .  A
C329       Br337   1.931       .  S
C330       Br341   1.926       .  S
C331        C332   1.411       .  A
C331        C336   1.409       .  A
C332        C333   1.411       .  A
C332       Br343   1.930       .  S
C333        C334   1.410       .  A
C333       Br339   1.928       .  S
C334        C335   1.408       .  A
C335        C336   1.407       .  A
C335       Br344   1.928       .  S
C336       Br340   1.927       .  S
C345        C346   1.418       .  A
C345        C350   1.416       .  A
C346        C347   1.409       .  A
C346       Br358   1.933       .  S
C347        C348   1.408       .  A
C347       Br362   1.932       .  S
C348        C351   1.489       .  S
C348        C349   1.408       .  A
C349        C350   1.409       .  A
C349       Br357   1.930       .  S
C350       Br361   1.932       .  S
C351        C352   1.410       .  A
C351        C356   1.411       .  A
C352        C353   1.408       .  A
C352       Br363   1.929       .  S
C353        C354   1.408       .  A
C353       Br359   1.929       .  S
C354        C355   1.409       .  A
C355        C356   1.410       .  A
C355       Br364   1.928   1_655  S
C356       Br360   1.930       .  S
C365        C366   1.412       .  A
C365        C370   1.411       .  A
C366        C367   1.408       .  A
C366       Br378   1.927       .  S
C367        C368   1.408       .  A
C367       Br382   1.930       .  S
C368        C371   1.487       .  S
C368        C369   1.409       .  A
C369        C370   1.409       .  A
C369       Br377   1.929       .  S
C370       Br381   1.926       .  S
C371        C372   1.409       .  A
C371        C376   1.409       .  A
C372        C373   1.409       .  A
C372       Br383   1.929       .  S
C373        C374   1.410       .  A
C373       Br379   1.929       .  S
C374        C375   1.413       .  A
C375        C376   1.408       .  A
C375       Br384   1.932       .  S
C376       Br380   1.930       .  S
C385        C386   1.408       .  A
C385        C390   1.408       .  A
C386        C387   1.408       .  A
C386       Br398   1.928       .  S
C387        C388   1.409       .  A
C387       Br402   1.929       .  S
C388        C391   1.484       .  S
C388        C389   1.410       .  A
C389        C390   1.407       .  A
C389       Br397   1.929       .  S
C390       Br401   1.929       .  S
C391        C392   1.407       .  A
C391        C396   1.408       .  A
C392        C393   1.407       .  A
C392       Br403   1.930       .  S
C393        C394   1.414       .  A
C393       Br399   1.931       .  S
C394        C395   1.416       .  A
C395        C396   1.408       .  A
C395       Br404   1.934       .  S
C396       Br400   1.930       .  S
C405        C406   1.410       .  A
C405        C410   1.410       .  A
C406        C407   1.408       .  A
C406       Br418   1.932       .  S
C407        C408   1.410       .  A
C407       Br422   1.929       .  S
C408        C411   1.485       .  S
C408        C409   1.409       .  A
C409        C410   1.407       .  A
C409       Br417   1.929       .  S
C410       Br421   1.930       .  S
C411        C412   1.408       .  A
C411        C416   1.410       .  A
C412        C413   1.407       .  A
C412       Br423   1.930       .  S
C413        C414   1.409       .  A
C413       Br419   1.925       .  S
C414        C415   1.411       .  A
C415        C416   1.410       .  A
C415       Br424   1.928       .  S
C416       Br420   1.930       .  S
C425        C426   1.417       .  A
C425        C430   1.411   1_655  A
C426        C427   1.409       .  A
C426       Br438   1.933   1_554  S
C427        C428   1.408       .  A
C427       Br442   1.930       .  S
C428        C431   1.488       .  S
C428        C429   1.408   1_655  A
C429        C430   1.408       .  A
C429       Br437   1.930       .  S
C430       Br441   1.925       .  S
C431        C432   1.408       .  A
C431        C436   1.408   1_655  A
C432        C433   1.410       .  A
C432       Br443   1.926       .  S
C433        C434   1.413       .  A
C433       Br439   1.930       .  S
C434        C435   1.416   1_655  A
C435        C436   1.410       .  A
C435       Br444   1.930       .  S
C436       Br440   1.931       .  S
C445        C446   1.411   1_655  A
C445        C450   1.416       .  A
C446        C447   1.407       .  A
C446       Br458   1.924       .  S
C447        C448   1.408   1_455  A
C447       Br462   1.929       .  S
C448        C451   1.484       .  S
C448        C449   1.407       .  A
C449        C450   1.405       .  A
C449       Br457   1.930       .  S
C450       Br461   1.935       .  S
C451        C452   1.411       .  A
C451        C456   1.407   1_655  A
C452        C453   1.410       .  A
C452       Br463   1.928       .  S
C453        C454   1.408       .  A
C453       Br459   1.928       .  S
C454        C455   1.409   1_655  A
C455        C456   1.404       .  A
C455       Br464   1.927       .  S
C456       Br460   1.927       .  S
C465        C466   1.416       .  A
C465        C470   1.417       .  A
C466        C467   1.412       .  A
C466       Br478   1.931       .  S
C467        C468   1.409       .  A
C467       Br482   1.929       .  S
C468        C471   1.492       .  S
C468        C469   1.408       .  A
C469        C470   1.410       .  A
C469       Br477   1.932       .  S
C470       Br481   1.931       .  S
C471        C472   1.409       .  A
C471        C476   1.409       .  A
C472        C473   1.410       .  A
C472       Br483   1.930       .  S
C473        C474   1.414       .  A
C473       Br479   1.931       .  S
C474        C475   1.415       .  A
C475        C476   1.410       .  A
C475       Br484   1.931   1_455  S
C476       Br480   1.929       .  S
C485        C486   1.416       .  A
C485        C490   1.417       .  A
C486        C487   1.413       .  A
C486       Br498   1.931       .  S
C487        C488   1.409       .  A
C487       Br502   1.928       .  S
C488        C491   1.495       .  S
C488        C489   1.409       .  A
C489        C490   1.411       .  A
C489       Br497   1.931       .  S
C490       Br501   1.931       .  S
C491        C492   1.408       .  A
C491        C496   1.409       .  A
C492        C493   1.412       .  A
C492       Br503   1.930       .  S
C493        C494   1.417       .  A
C493       Br499   1.924       .  S
C494        C495   1.413       .  A
C495        C496   1.411       .  A
C495       Br504   1.923       .  S
C496       Br500   1.929       .  S
C505        C506   1.413       .  A
C505        C510   1.417       .  A
C506        C507   1.413       .  A
C506       Br518   1.930       .  S
C507        C508   1.413       .  A
C507       Br522   1.931       .  S
C508        C511   1.502       .  S
C508        C509   1.412       .  A
C509        C510   1.414       .  A
C509       Br517   1.931       .  S
C510       Br521   1.931       .  S
C511        C512   1.415       .  A
C511        C516   1.412       .  A
C512        C513   1.415       .  A
C512       Br523   1.929       .  S
C513        C514   1.412       .  A
C513       Br519   1.931       .  S
C514        C515   1.410       .  A
C515        C516   1.409       .  A
C515       Br524   1.926       .  S
C516       Br520   1.931       .  S
C525        C526   1.413       .  A
C525        C530   1.419   1_565  A
C526        C527   1.408       .  A
C526       Br538   1.929       .  S
C527        C528   1.407       .  A
C527       Br542   1.927       .  S
C528        C531   1.488       .  S
C528        C529   1.408   1_565  A
C529        C530   1.409       .  A
C529       Br537   1.932       .  S
C530       Br541   1.934       .  S
C531        C532   1.406       .  A
C531        C536   1.409   1_565  A
C532        C533   1.408       .  A
C532       Br543   1.930       .  S
C533        C534   1.415       .  A
C533       Br539   1.924       .  S
C534        C535   1.411   1_565  A
C535        C536   1.408       .  A
C535       Br544   1.923       .  S
C536       Br540   1.929       .  S
C545        C546   1.413       .  A
C545        C550   1.413       .  A
C546        C547   1.410       .  A
C546       Br558   1.931       .  S
C547        C548   1.410       .  A
C547       Br562   1.931       .  S
C548        C551   1.492       .  S
C548        C549   1.411       .  A
C549        C550   1.411       .  A
C549       Br557   1.930       .  S
C550       Br561   1.931       .  S
C551        C552   1.411       .  A
C551        C556   1.409       .  A
C552        C553   1.411       .  A
C552       Br563   1.930       .  S
C553        C554   1.413       .  A
C553       Br559   1.931       .  S
C554        C555   1.414       .  A
C555        C556   1.410       .  A
C555       Br564   1.930       .  S
C556       Br560   1.932       .  S
C565        C566   1.416       .  A
C565        C570   1.414       .  A
C566        C567   1.408       .  A
C566       Br578   1.933       .  S
C567        C568   1.408       .  A
C567       Br582   1.931       .  S
C568        C571   1.488       .  S
C568        C569   1.410       .  A
C569        C570   1.410       .  A
C569       Br577   1.930       .  S
C570       Br581   1.932       .  S
C571        C572   1.411       .  A
C571        C576   1.410       .  A
C572        C573   1.409       .  A
C572       Br583   1.930       .  S
C573        C574   1.408       .  A
C573       Br579   1.929       .  S
C574        C575   1.409       .  A
C575        C576   1.407       .  A
C575       Br584   1.931   1_545  S
C576       Br580   1.928       .  S
C585        C586   1.418       .  A
C585        C590   1.416       .  A
C586        C587   1.409       .  A
C586       Br598   1.933       .  S
C587        C588   1.409       .  A
C587       Br602   1.933       .  S
C588        C591   1.489       .  S
C588        C589   1.409       .  A
C589        C590   1.408       .  A
C589       Br597   1.932       .  S
C590       Br601   1.933       .  S
C591        C592   1.411       .  A
C591        C596   1.410       .  A
C592        C593   1.409       .  A
C592       Br603   1.931       .  S
C593        C594   1.411       .  A
C593       Br599   1.926       .  S
C594        C595   1.410       .  A
C595        C596   1.407       .  A
C595       Br604   1.925       .  S
C596       Br600   1.932       .  S
C605        C606   1.414       .  A
C605        C610   1.414       .  A
C606        C607   1.410       .  A
C606       Br618   1.931       .  S
C607        C608   1.408       .  A
C607       Br622   1.928       .  S
C608        C611   1.489       .  S
C608        C609   1.407       .  A
C609        C610   1.409       .  A
C609       Br617   1.928       .  S
C610       Br621   1.924       .  S
C611        C612   1.408       .  A
C611        C616   1.408       .  A
C612        C613   1.408       .  A
C612       Br623   1.931       .  S
C613        C614   1.412       .  A
C613       Br619   1.924       .  S
C614        C615   1.416       .  A
C615        C616   1.411       .  A
C615       Br624   1.931   1_556  S
C616       Br620   1.929       .  S
C625        C626   1.410       .  A
C625        C630   1.410       .  A
C626        C627   1.409       .  A
C626       Br638   1.926       .  S
C627        C628   1.409       .  A
C627       Br642   1.929       .  S
C628        C631   1.492       .  S
C628        C629   1.411       .  A
C629        C630   1.412       .  A
C629       Br637   1.928       .  S
C630       Br641   1.929       .  S
C631        C632   1.409       .  A
C631        C636   1.410       .  A
C632        C633   1.410       .  A
C632       Br643   1.929       .  S
C633        C634   1.413       .  A
C633       Br639   1.931       .  S
C634        C635   1.413       .  A
C635        C636   1.410       .  A
C635       Br644   1.932       .  S
C636       Br640   1.929       .  S
C645        C646   1.410       .  A
C645        C650   1.407       .  A
C646        C647   1.409       .  A
C646       Br658   1.929       .  S
C647        C648   1.411       .  A
C647       Br662   1.929       .  S
C648        C651   1.486       .  S
C648        C649   1.410       .  A
C649        C650   1.405       .  A
C649       Br657   1.930       .  S
C650       Br661   1.928       .  S
C651        C652   1.406       .  A
C651        C656   1.407       .  A
C652        C653   1.408       .  A
C652       Br663   1.932       .  S
C653        C654   1.420       .  A
C653       Br659   1.932       .  S
C654        C655   1.418       .  A
C655        C656   1.410       .  A
C655       Br664   1.925   1_455  S
C656       Br660   1.932       .  S
C665        C666   1.411       .  A
C665        C670   1.410       .  A
C666        C667   1.410       .  A
C666       Br678   1.930       .  S
C667        C668   1.410       .  A
C667       Br682   1.929       .  S
C668        C671   1.490       .  S
C668        C669   1.410       .  A
C669        C670   1.409       .  A
C669       Br677   1.928       .  S
C670       Br681   1.931       .  S
C671        C672   1.409       .  A
C671        C676   1.410       .  A
C672        C673   1.411       .  A
C672       Br683   1.929       .  S
C673        C674   1.413       .  A
C673       Br679   1.931       .  S
C674        C675   1.412       .  A
C675        C676   1.409       .  A
C675       Br684   1.931       .  S
C676       Br680   1.929       .  S
C685        C686   1.411       .  A
C685        C690   1.416       .  A
C686        C687   1.403       .  A
C686       Br698   1.922       .  S
C687        C688   1.406       .  A
C687       Br702   1.934       .  S
C688        C691   1.479       .  S
C688        C689   1.407       .  A
C689        C690   1.408       .  A
C689       Br697   1.930       .  S
C690       Br701   1.933       .  S
C691        C692   1.406       .  A
C691        C696   1.407       .  A
C692        C693   1.407       .  A
C692       Br703   1.931       .  S
C693        C694   1.415       .  A
C693       Br699   1.931       .  S
C694        C695   1.415       .  A
C695        C696   1.404       .  A
C695       Br704   1.933       .  S
C696       Br700   1.932       .  S
C705        C706   1.416       .  A
C705        C710   1.411       .  A
C706        C707   1.407       .  A
C706       Br718   1.934       .  S
C707        C708   1.408       .  A
C707       Br722   1.929       .  S
C708        C711   1.484       .  S
C708        C709   1.407       .  A
C709        C710   1.406       .  A
C709       Br717   1.929       .  S
C710       Br721   1.924   1_554  S
C711        C712   1.410       .  A
C711        C716   1.409       .  A
C712        C713   1.407       .  A
C712       Br723   1.928       .  S
C713        C714   1.407       .  A
C713       Br719   1.929       .  S
C714        C715   1.408       .  A
C715        C716   1.407       .  A
C715       Br724   1.928       .  S
C716       Br720   1.928       .  S
C725        C726   1.414   1_565  A
C725        C730   1.411       .  A
C726        C727   1.406       .  A
C726       Br738   1.933       .  S
C727        C728   1.407   1_545  A
C727       Br742   1.928       .  S
C728        C731   1.479       .  S
C728        C729   1.407       .  A
C729        C730   1.405       .  A
C729       Br737   1.932       .  S
C730       Br741   1.924       .  S
C731        C732   1.409   1_565  A
C731        C736   1.409       .  A
C732        C733   1.404       .  A
C732       Br743   1.930       .  S
C733        C734   1.406   1_545  A
C733       Br739   1.929       .  S
C734        C735   1.408       .  A
C735        C736   1.407       .  A
C735       Br744   1.928       .  S
C736       Br740   1.929       .  S
C745        C746   1.417       .  A
C745        C750   1.420       .  A
C746        C747   1.413       .  A
C746       Br758   1.930       .  S
C747        C748   1.410       .  A
C747       Br762   1.931       .  S
C748        C751   1.498       .  S
C748        C749   1.409       .  A
C749        C750   1.413       .  A
C749       Br757   1.932       .  S
C750       Br761   1.933       .  S
C751        C752   1.411       .  A
C751        C756   1.412       .  A
C752        C753   1.411       .  A
C752       Br763   1.930       .  S
C753        C754   1.412       .  A
C753       Br759   1.924       .  S
C754        C755   1.411       .  A
C755        C756   1.412       .  A
C755       Br764   1.927   1_545  S
C756       Br760   1.929       .  S
C765        C766   1.418   1_545  A
C765        C770   1.415       .  A
C766        C767   1.411       .  A
C766       Br778   1.932       .  S
C767        C768   1.408   1_565  A
C767       Br782   1.931       .  S
C768        C771   1.487       .  S
C768        C769   1.405       .  A
C769        C770   1.407       .  A
C769       Br777   1.929       .  S
C770       Br781   1.922       .  S
C771        C772   1.408       .  A
C771        C776   1.409   1_545  A
C772        C773   1.408       .  A
C772       Br783   1.929       .  S
C773        C774   1.415       .  A
C773       Br779   1.933   1_554  S
C774        C775   1.411   1_545  A
C775        C776   1.407       .  A
C775       Br784   1.926       .  S
C776       Br780   1.929       .  S
C785        C786   1.414       .  A
C785        C790   1.414       .  A
C786        C787   1.409       .  A
C786       Br798   1.932       .  S
C787        C788   1.409       .  A
C787       Br802   1.930       .  S
C788        C791   1.493       .  S
C788        C789   1.410       .  A
C789        C790   1.412       .  A
C789       Br797   1.930       .  S
C790       Br801   1.929       .  S
C791        C792   1.409       .  A
C791        C796   1.409       .  A
C792        C793   1.411       .  A
C792       Br803   1.930       .  S
C793        C794   1.417       .  A
C793       Br799   1.933       .  S
C794        C795   1.414       .  A
C795        C796   1.410       .  A
C795       Br804   1.924       .  S
C796       Br800   1.930       .  S
C805        C806   1.409       .  A
C805        C810   1.410       .  A
C806        C807   1.408       .  A
C806       Br818   1.927       .  S
C807        C808   1.409       .  A
C807       Br822   1.928       .  S
C808        C811   1.489       .  S
C808        C809   1.410       .  A
C809        C810   1.411       .  A
C809       Br817   1.928       .  S
C810       Br821   1.928       .  S
C811        C812   1.408       .  A
C811        C816   1.407       .  A
C812        C813   1.410       .  A
C812       Br823   1.929       .  S
C813        C814   1.418       .  A
C813       Br819   1.935       .  S
C814        C815   1.412       .  A
C815        C816   1.408       .  A
C815       Br824   1.923       .  S
C816       Br820   1.930       .  S
C825        C826   1.417       .  A
C825        C830   1.417       .  A
C826        C827   1.411       .  A
C826       Br838   1.931       .  S
C827        C828   1.409       .  A
C827       Br842   1.931       .  S
C828        C831   1.489       .  S
C828        C829   1.408       .  A
C829        C830   1.408       .  A
C829       Br837   1.932       .  S
C830       Br841   1.933       .  S
C831        C832   1.411       .  A
C831        C836   1.411       .  A
C832        C833   1.408       .  A
C832       Br843   1.930       .  S
C833        C834   1.409       .  A
C833       Br839   1.927       .  S
C834        C835   1.409       .  A
C835        C836   1.407       .  A
C835       Br844   1.933       .  S
C836       Br840   1.928       .  S
C845        C846   1.419       .  A
C845        C850   1.415       .  A
C846        C847   1.407       .  A
C846       Br858   1.934       .  S
C847        C848   1.407       .  A
C847       Br862   1.933       .  S
C848        C851   1.486       .  S
C848        C849   1.408       .  A
C849        C850   1.409       .  A
C849       Br857   1.928       .  S
C850       Br861   1.932       .  S
C851        C852   1.407       .  A
C851        C856   1.407       .  A
C852        C853   1.409       .  A
C852       Br863   1.932       .  S
C853        C854   1.416       .  A
C853       Br859   1.924       .  S
C854        C855   1.411       .  A
C855        C856   1.407       .  A
C855       Br864   1.921       .  S
C856       Br860   1.929       .  S
C865        C866   1.412       .  A
C865        C870   1.412       .  A
C866        C867   1.410       .  A
C866       Br878   1.929       .  S
C867        C868   1.409       .  A
C867       Br882   1.929       .  S
C868        C871   1.491       .  S
C868        C869   1.410       .  A
C869        C870   1.410       .  A
C869       Br877   1.930       .  S
C870       Br881   1.930       .  S
C871        C872   1.411       .  A
C871        C876   1.410       .  A
C872        C873   1.409       .  A
C872       Br883   1.929       .  S
C873        C874   1.408       .  A
C873       Br879   1.928       .  S
C874        C875   1.410       .  A
C875        C876   1.410       .  A
C875       Br884   1.929       .  S
C876       Br880   1.928       .  S
C885        C886   1.412       .  A
C885        C890   1.412       .  A
C886        C887   1.409       .  A
C886       Br898   1.929       .  S
C887        C888   1.409       .  A
C887       Br902   1.929       .  S
C888        C891   1.492       .  S
C888        C889   1.411       .  A
C889        C890   1.412       .  A
C889       Br897   1.929       .  S
C890       Br901   1.930       .  S
C891        C892   1.409       .  A
C891        C896   1.410       .  A
C892        C893   1.411       .  A
C892       Br903   1.929       .  S
C893        C894   1.414       .  A
C893       Br899   1.930       .  S
C894        C895   1.413       .  A
C895        C896   1.411       .  A
C895       Br904   1.930       .  S
C896       Br900   1.930       .  S
C905        C906   1.415       .  A
C905        C910   1.416       .  A
C906        C907   1.409       .  A
C906       Br918   1.932       .  S
C907        C908   1.408       .  A
C907       Br922   1.930       .  S
C908        C911   1.487       .  S
C908        C909   1.407       .  A
C909        C910   1.409       .  A
C909       Br917   1.930       .  S
C910       Br921   1.932       .  S
C911        C912   1.410       .  A
C911        C916   1.411       .  A
C912        C913   1.406       .  A
C912       Br923   1.930       .  S
C913        C914   1.407       .  A
C913       Br919   1.929       .  S
C914        C915   1.408       .  A
C915        C916   1.409       .  A
C915       Br924   1.931       .  S
C916       Br920   1.927       .  S
C925        C926   1.420       .  A
C925        C930   1.418       .  A
C926        C927   1.411       .  A
C926       Br938   1.933       .  S
C927        C928   1.407       .  A
C927       Br942   1.931       .  S
C928        C931   1.497       .  S
C928        C929   1.410       .  A
C929        C930   1.415       .  A
C929       Br937   1.930       .  S
C930       Br941   1.931       .  S
C931        C932   1.412       .  A
C931        C936   1.410       .  A
C932        C933   1.414       .  A
C932       Br943   1.928       .  S
C933        C934   1.413       .  A
C933       Br939   1.930       .  S
C934        C935   1.412       .  A
C935        C936   1.410       .  A
C935       Br944   1.927       .  S
C936       Br940   1.930       .  S
C945        C946   1.415       .  A
C945        C950   1.418   1_545  A
C946        C947   1.411       .  A
C946       Br958   1.929       .  S
C947        C948   1.408       .  A
C947       Br962   1.927       .  S
C948        C951   1.488       .  S
C948        C949   1.408   1_545  A
C949        C950   1.409       .  A
C949       Br957   1.933       .  S
C950       Br961   1.934       .  S
C951        C952   1.408       .  A
C951        C956   1.408       .  A
C952        C953   1.409   1_545  A
C952       Br963   1.928   1_545  S
C953        C954   1.412   1_565  A
C953       Br959   1.924   1_655  S
C954        C955   1.414       .  A
C955        C956   1.408       .  A
C955       Br964   1.928       .  S
C956       Br960   1.931       .  S
C965        C966   1.412       .  A
C965        C970   1.414       .  A
C966        C967   1.410       .  A
C966       Br978   1.930       .  S
C967        C968   1.410       .  A
C967       Br982   1.930       .  S
C968        C971   1.487       .  S
C968        C969   1.408       .  A
C969        C970   1.408       .  A
C969       Br977   1.930       .  S
C970       Br981   1.931       .  S
C971        C972   1.409       .  A
C971        C976   1.410       .  A
C972        C973   1.407       .  A
C972       Br983   1.930       .  S
C973        C974   1.411       .  A
C973       Br979   1.931       .  S
C974        C975   1.410       .  A
C975        C976   1.409       .  A
C975       Br984   1.929       .  S
C976       Br980   1.928       .  S
