geometry optimzed in LAMMPS
_audit_creation_date              2020-11-30 
_audit_creation_method            'lammps2cif' 
_symmetry_space_group_name_H-M    'P1' 
_symmetry_Int_Tables_number       1 
_symmetry_cell_setting            triclinic 
loop_ 
_symmetry_equiv_pos_as_xyz 
  x,y,z 
_cell_length_a                    30.1117921 
_cell_length_b                    49.13621586603484 
_cell_length_c                    45.126719557210755 
_cell_angle_alpha                 89.9595170206925 
_cell_angle_beta                  90.2832551198637 
_cell_angle_gamma                 89.58756743837613 
loop_ 
_atom_site_label 
_atom_site_type_symbol 
_atom_site_fract_x 
_atom_site_fract_y 
_atom_site_fract_z 
_atom_site_charge 
C1          C  0.00338035  0.47575361  0.01663052     0.02400
C2          C  0.04269349  0.48734527  0.00513602     0.02400
C3          C  0.03906914  0.00963964  0.48669044     0.02400
C4          C  0.49705332  0.01682857  0.47199846     0.02400
C5          C  0.45725488  0.00607607  0.48373079     0.02400
C6          C  0.46135748  0.48365286  0.00548515     0.02400
O7          O  0.46913926  0.16370579  0.35670019    -0.85200
O8          O  0.42197248  0.15280058  0.30597717    -0.82200
C9          C  0.43793665  0.16912477  0.28724311     0.98300
O10         O  0.47554619  0.16489625  0.27598003    -0.82300
O11         O  0.06222040  0.14694185  0.27464055    -0.84900
C12         C  0.08129744  0.16250072  0.29302288     1.02800
O13         O  0.07479373  0.15970626  0.32037040    -0.77700
O14         O  0.03349969  0.14815043  0.37276126    -0.77900
C15         C  0.00059732  0.16400985  0.37609497     1.02700
O16         O  0.47317688  0.10720633  0.37068620    -0.85200
O17         O  0.43291003  0.09534239  0.31729140    -0.82300
C18         C  0.42643799  0.09336826  0.28976683     0.98300
O19         O  0.44566208  0.10935528  0.27196614    -0.82300
O20         O  0.03261566  0.09134187  0.27672572    -0.84900
C21         C  0.06998710  0.08659208  0.28837556     1.02800
O22         O  0.08542590  0.10216886  0.30822661    -0.77700
O23         O  0.03765225  0.09140396  0.35831808    -0.77900
C24         C  0.00538188  0.09100888  0.37591598     1.02700
Cr25       Cr  0.45312900  0.12954972  0.33594614     1.93700
Cr26       Cr  0.00362685  0.12761580  0.27886199     1.93200
Cr27       Cr  0.05416864  0.12557851  0.33821537     1.39100
O28         O  0.00357272  0.12745288  0.31834424    -1.22900
C29         C  0.49610933  0.22401634  0.48557307     0.02400
C30         C  0.45479874  0.23410967  0.49615269     0.02400
C31         C  0.45721640  0.25393561  0.01904860     0.02400
C32         C  0.99615715  0.26214742  0.03161818     0.02400
C33         C  0.03777811  0.25366105  0.02006906     0.02400
C34         C  0.03625829  0.23291344  0.49956444     0.02400
O35         O  0.04214415  0.40845268  0.14135366    -0.85200
O36         O  0.08746411  0.39338831  0.19204831    -0.82200
C37         C  0.07533736  0.41135505  0.21042354     0.98300
O38         O  0.03716592  0.41092795  0.22166749    -0.82300
O39         O  0.44539010  0.40281297  0.22517148    -0.84900
C40         C  0.42985384  0.42005558  0.20684371     1.02800
O41         O  0.43648361  0.41673931  0.17954883    -0.77700
O42         O  0.47512338  0.39981161  0.12774813    -0.77900
C43         C  0.01009547  0.41174008  0.12362745     1.02700
O44         O  0.02404655  0.35308446  0.12833409    -0.85200
O45         O  0.06268650  0.33763271  0.18097089    -0.82300
C46         C  0.07017385  0.33553905  0.20834868     0.98300
O47         O  0.05410703  0.35310399  0.22601016    -0.82300
O48         O  0.46286310  0.34481632  0.22328101    -0.84900
C49         C  0.42498463  0.34346337  0.21141298     1.02800
O50         O  0.41257220  0.36088659  0.19238503    -0.77700
O51         O  0.45795921  0.34492502  0.14261063    -0.77900
C52         C  0.98831048  0.33998429  0.12613994     1.02700
Cr53       Cr  0.05023890  0.37339542  0.16233588     1.93700
Cr54       Cr  0.00037765  0.37780460  0.22121247     1.93200
Cr55       Cr  0.44932119  0.38046538  0.16233537     1.39100
O56         O  0.99982809  0.37717011  0.18194830    -1.22900
C57         C  0.24597646  0.02438552  0.26805866     0.02400
C58         C  0.20711221  0.01121483  0.25784551     0.02400
C59         C  0.21079784  0.49004247  0.23557327     0.02400
C60         C  0.25282569  0.48388970  0.22297635     0.02400
C61         C  0.29165920  0.49648376  0.23434027     0.02400
C62         C  0.28786862  0.01843209  0.25550913     0.02400
O63         O  0.27129468  0.35374931  0.12236619    -0.85200
O64         O  0.31111543  0.33576747  0.07115049    -0.82200
C65         C  0.31826217  0.33177350  0.04401707     0.98300
O66         O  0.30189345  0.34783370  0.02475115    -0.82300
O67         O  0.21149522  0.33823302  0.02632689    -0.84900
C68         C  0.17293593  0.33694737  0.03716062     1.02800
O69         O  0.15999032  0.35499260  0.05533075    -0.77700
O70         O  0.20568863  0.34114513  0.10631798    -0.77900
C71         C  0.23666336  0.33952924  0.12503889     1.02700
O72         O  0.28716325  0.40842673  0.10403832    -0.85200
O73         O  0.33467124  0.39069780  0.05602455    -0.82300
C74         C  0.32239422  0.40776584  0.03660378     0.98300
O75         O  0.28421469  0.40613378  0.02508198    -0.82300
O76         O  0.19454284  0.39674659  0.02187619    -0.84900
C77         C  0.17966280  0.41451526  0.03972509     1.02800
O78         O  0.18400984  0.41117126  0.06708581    -0.77700
O79         O  0.22071049  0.39769789  0.11958139    -0.77900
C80         C  0.25557045  0.41184534  0.12175946     1.02700
Cr81       Cr  0.29735800  0.37214225  0.08675327     1.93700
Cr82       Cr  0.24790749  0.37225834  0.02726530     1.93200
Cr83       Cr  0.19621885  0.37600077  0.08545821     1.39100
O84         O  0.24715273  0.37333189  0.06644088    -1.22900
C85         C  0.25787539  0.23179724  0.27219511     0.02400
C86         C  0.29695195  0.24253643  0.25912396     0.02400
C87         C  0.29300825  0.26212242  0.23619230     0.02400
C88         C  0.25036093  0.27020752  0.22636050     0.02400
C89         C  0.21198890  0.26197535  0.24166630     0.02400
C90         C  0.21520257  0.24123620  0.26303785     0.02400
O91         O  0.21024125  0.09381456  0.38851856    -0.85200
O92         O  0.16309674  0.10399457  0.43836987    -0.82200
C93         C  0.17671251  0.08552985  0.45590376     0.98300
O94         O  0.21459861  0.08697268  0.46774828    -0.82300
O95         O  0.30345957  0.09847845  0.47245091    -0.84900
C96         C  0.32000198  0.08261473  0.45324516     1.02800
O97         O  0.31424824  0.08735096  0.42613158    -0.77700
O98         O  0.27697062  0.10628420  0.37494697    -0.77900
C99         C  0.24279696  0.09194070  0.37135557     1.02700
O100        O  0.22323115  0.15064037  0.37810873    -0.85200
O101        O  0.18270593  0.16160130  0.43132760    -0.82300
C102        C  0.17569652  0.16192409  0.45877927     0.98300
O103        O  0.19248498  0.14362366  0.47527408    -0.82300
O104        O  0.28158648  0.15562506  0.47449420    -0.84900
C105        C  0.31951385  0.15878596  0.46339116     1.02800
O106        O  0.33398566  0.14269339  0.44376033    -0.77700
O107        O  0.28977405  0.16083760  0.39454544    -0.77900
C108        C  0.25815832  0.16475202  0.37669487     1.02700
Cr109      Cr  0.19844807  0.12745832  0.41067998     1.93700
Cr110      Cr  0.24812145  0.12142074  0.46966067     1.93200
Cr111      Cr  0.29998352  0.12424435  0.41147538     1.39100
O112        O  0.24883261  0.12448507  0.43056435    -1.22900
C113        C  0.25439984  0.22627180  0.32641679    -0.12100
C114        C  0.26107298  0.21393891  0.29874285     0.04900
C115        C  0.27209330  0.18594482  0.29752337    -0.07400
C116        C  0.27281653  0.17079377  0.32382268    -0.08100
C117        C  0.26390209  0.18295113  0.35124176    -0.02700
C118        C  0.25656381  0.21125099  0.35285205     0.04100
N119        N  0.25215483  0.22504737  0.38078813     0.66600
H120        H  0.24902717  0.24807840  0.32736618     0.15500
H121        H  0.27929147  0.14907422  0.32280585     0.15200
N122        N  0.28279322  0.17248940  0.27024917     0.74300
O123        O  0.27591440  0.21796086  0.40261898    -0.39100
O124        O  0.23007045  0.24692742  0.38241282    -0.39100
O125        O  0.31396518  0.15517916  0.26964262    -0.39800
O126        O  0.25748054  0.17471821  0.24805237    -0.39800
C127        C  0.22882717  0.29401529  0.14757360    -0.12100
C128        C  0.23241854  0.32218275  0.15121866     0.04900
C129        C  0.23781057  0.33324559  0.17988276    -0.07400
C130        C  0.24755130  0.31571117  0.20337566    -0.08100
C131        C  0.24544850  0.28757952  0.19981094    -0.02700
C132        C  0.23417297  0.27649727  0.17186879     0.04100
N133        N  0.22887590  0.24772287  0.16767127     0.66600
H134        H  0.22358774  0.28559973  0.12564495     0.15500
H135        H  0.25514909  0.32397544  0.22488386     0.15200
N136        N  0.22932122  0.36159619  0.18588800     0.74300
O137        O  0.25681047  0.23108326  0.17831695    -0.39100
O138        O  0.19798423  0.23896644  0.15132619    -0.39100
O139        O  0.19988283  0.37408411  0.17113887    -0.39800
O140        O  0.24205120  0.37190677  0.21007587    -0.39800
C141        C  0.27915288  0.44126459  0.19728662    -0.12100
C142        C  0.25542346  0.46590181  0.19621905     0.04900
C143        C  0.23433504  0.47343633  0.16920277    -0.07400
C144        C  0.23528038  0.45520852  0.14550846    -0.08100
C145        C  0.25980768  0.43114358  0.14641806    -0.02700
C146        C  0.28434680  0.42462814  0.17235917     0.04100
N147        N  0.31440411  0.40162224  0.17377142     0.66600
H148        H  0.29523389  0.43496419  0.21800660     0.15500
H149        H  0.21667035  0.46051826  0.12441623     0.15200
N150        N  0.21316803  0.49953579  0.16547899     0.74300
O151        O  0.33551207  0.39412104  0.15109166    -0.39100
O152        O  0.32607566  0.39196809  0.19858021    -0.39100
O153        O  0.23154454  0.52075310  0.17518301    -0.39800
O154        O  0.17959781  0.50194651  0.14875780    -0.39800
C155        C  0.26149741  0.04904039  0.34676565    -0.12100
C156        C  0.24021193  0.07427532  0.34563421     0.04900
C157        C  0.22022028  0.08344841  0.31918641    -0.07400
C158        C  0.22376844  0.06745566  0.29365027    -0.08100
C159        C  0.24416157  0.04171021  0.29487366    -0.02700
C160        C  0.26262677  0.03225107  0.32189443     0.04100
N161        N  0.28089028  0.00532394  0.32473491     0.66600
H162        H  0.27610298  0.04208476  0.36734076     0.15500
H163        H  0.20928082  0.07466367  0.27306249     0.15200
N164        N  0.19647634  0.10885900  0.31806980     0.74300
O165        O  0.31453043  0.49962174  0.34024705    -0.39100
O166        O  0.26033649  0.48402745  0.31327755    -0.39100
O167        O  0.20150046  0.12476471  0.29643068    -0.39800
O168        O  0.16812455  0.11464678  0.33763605    -0.39800
C169        C  0.12747540  0.31953470  0.24456970    -0.12100
C170        C  0.10118298  0.31401384  0.21949473     0.04900
C171        C  0.10825110  0.28922218  0.20416889    -0.07400
C172        C  0.14185945  0.27114402  0.21346951    -0.08100
C173        C  0.16990632  0.27764238  0.23724406    -0.02700
C174        C  0.16210769  0.30196766  0.25322998     0.04100
N175        N  0.19103954  0.31019218  0.27688839     0.66600
H176        H  0.12309000  0.33851459  0.25645436     0.15500
H177        H  0.14774946  0.25265347  0.20100313     0.15200
N178        N  0.08259125  0.28243489  0.17855049     0.74300
O179        O  0.17946825  0.30623438  0.30332818    -0.39100
O180        O  0.22028057  0.32782027  0.27193294    -0.39100
O181        O  0.09871087  0.28618023  0.15311871    -0.39800
O182        O  0.04865719  0.26776345  0.18135756    -0.39800
C183        C  0.38362077  0.30249286  0.19676625    -0.12100
C184        C  0.39475820  0.32117735  0.21901571     0.04900
C185        C  0.37375051  0.31959762  0.24677732    -0.07400
C186        C  0.34100130  0.29993764  0.25114952    -0.08100
C187        C  0.33117322  0.28031100  0.22959374    -0.02700
C188        C  0.35267251  0.28179857  0.20181515     0.04100
N189        N  0.34288054  0.26330725  0.17821982     0.66600
H190        H  0.39931608  0.30395603  0.17525284     0.15500
H191        H  0.32187711  0.30038167  0.27137851     0.15200
N192        N  0.38382047  0.33828568  0.27027351     0.74300
O193        O  0.35509913  0.23881245  0.18047915    -0.39100
O194        O  0.33385035  0.27263800  0.15280462    -0.39100
O195        O  0.35308116  0.34718398  0.28662646    -0.39800
O196        O  0.42362408  0.34191423  0.27811118    -0.39800
C197        C  0.39258260  0.46522950  0.19748747    -0.12100
C198        C  0.40132617  0.44326082  0.21692717     0.04900
C199        C  0.37943881  0.44289256  0.24461263    -0.07400
C200        C  0.34715145  0.46262832  0.25105006    -0.08100
C201        C  0.33546215  0.48276388  0.23037050    -0.02700
C202        C  0.36026321  0.48507947  0.20422434     0.04100
N203        N  0.35053871  0.00702658  0.18370577     0.66600
H204        H  0.40994247  0.46658440  0.17656967     0.15500
H205        H  0.32801934  0.46065267  0.27122686     0.15200
N206        N  0.38543560  0.42090177  0.26498542     0.74300
O207        O  0.36674967  0.03028033  0.18822602    -0.39100
O208        O  0.33053878  0.00221112  0.15967261    -0.39100
O209        O  0.41722962  0.42144619  0.28328389    -0.39800
O210        O  0.35447488  0.40407238  0.26859267    -0.39800
C211        C  0.14048673  0.42648067  0.23923486    -0.12100
C212        C  0.10668007  0.43265423  0.21892835     0.04900
C213        C  0.10538837  0.45833909  0.20509312    -0.07400
C214        C  0.13890803  0.47724427  0.21110212    -0.08100
C215        C  0.17354316  0.47085953  0.23088492    -0.02700
C216        C  0.17359056  0.44544659  0.24560347     0.04100
N217        N  0.20679747  0.43869520  0.26727025     0.66600
H218        H  0.14149757  0.40670261  0.24989358     0.15500
H219        H  0.13803849  0.49681042  0.20013467     0.15200
N220        N  0.07107402  0.46502102  0.18418949     0.74300
O221        O  0.19596749  0.43695808  0.29415579    -0.39100
O222        O  0.24279723  0.42792065  0.25909580    -0.39100
O223        O  0.03097694  0.46564371  0.19220301    -0.39800
O224        O  0.08077320  0.47019136  0.15761254    -0.39800
C225        C  0.11874153  0.17428562  0.49567060    -0.12100
C226        C  0.14453103  0.18215787  0.47150115     0.04900
C227        C  0.13830694  0.20837937  0.45937719    -0.07400
C228        C  0.10829714  0.22520055  0.97142714    -0.08100
C229        C  0.07729493  0.21698093  0.49344248    -0.02700
C230        C  0.08487641  0.19106012  0.50682634     0.04100
N231        N  0.05852950  0.18099725  0.53114066     0.66600
H232        H  0.12398289  0.15429025  0.50524225     0.15500
H233        H  0.10274352  0.24497598  0.96136651     0.15200
N234        N  0.16987364  0.21812585  0.93738185     0.74300
O235        O  0.06093710  0.15626981  0.53871399    -0.39100
O236        O  0.03345957  0.19657383  0.54572831    -0.39100
O237        O  0.15603612  0.21806289  0.91094949    -0.39800
O238        O  0.20473859  0.23090644  0.94395650    -0.39800
C239        C  0.39676088  0.20254623  0.01064071    -0.12100
C240        C  0.41274976  0.21988175  0.48826284     0.04900
C241        C  0.39469013  0.21946867  0.45927389    -0.07400
C242        C  0.36353771  0.19951240  0.45182796    -0.08100
C243        C  0.34796606  0.18119013  0.47311322    -0.02700
C244        C  0.36438167  0.18338317  0.00344227     0.04100
N245        N  0.34934061  0.16499857  0.02573205     0.66600
H246        H  0.41147463  0.20189444  0.03249500     0.15500
H247        H  0.35151092  0.19817526  0.42921275     0.15200
N248        N  0.40768995  0.23870817  0.43715814     0.74300
O249        O  0.36878693  0.14238657  0.02927269    -0.39100
O250        O  0.32149644  0.17302555  0.04467280    -0.39100
O251        O  0.39867683  0.26353800  0.44098109    -0.39800
O252        O  0.41607634  0.23053867  0.41126210    -0.39800
C253        C  0.14920151  0.28817272  0.04070247    -0.12100
C254        C  0.14221824  0.31436109  0.02887150     0.04900
C255        C  0.10354667  0.31915999  0.01180308    -0.07400
C256        C  0.07132377  0.29867576  0.00919081    -0.08100
C257        C  0.07653053  0.27297960  0.02265707    -0.02700
C258        C  0.11718995  0.26736709  0.03760084     0.04100
N259        N  0.12663894  0.24115307  0.05014629     0.66600
H260        H  0.17906617  0.28417626  0.05353259     0.15500
H261        H  0.04164702  0.30277369  0.99620528     0.15200
N262        N  0.09728395  0.34428359  0.99602197     0.74300
O263        O  0.16509026  0.23096229  0.04793080    -0.39100
O264        O  0.09876943  0.22980870  0.06670953    -0.39100
O265        O  0.12629801  0.35701740  0.48263732    -0.39800
O266        O  0.05877200  0.35421097  0.99276820    -0.39800
C267        C  0.40433870  0.28953491  0.00309400    -0.12100
C268        C  0.41569451  0.26990436  0.02444726     0.04900
C269        C  0.39194534  0.26941905  0.05137144    -0.07400
C270        C  0.35878560  0.28897208  0.05649328    -0.08100
C271        C  0.34847074  0.30917249  0.03541542    -0.02700
C272        C  0.37069289  0.30870135  0.00797413     0.04100
N273        N  0.36220643  0.32877811  0.98570556     0.66600
H274        H  0.42429943  0.29140440  0.98335133     0.15500
H275        H  0.33814631  0.28857660  0.57686485     0.15200
N276        N  0.39776721  0.25000092  0.57355285     0.74300
O277        O  0.38774224  0.34890453  0.98346905    -0.39100
O278        O  0.33543358  0.32358207  0.96490292    -0.39100
O279        O  0.40906026  0.25879028  0.59873606    -0.39800
O280        O  0.38041879  0.22677732  0.57203171    -0.39800
C281        C  0.99876711  0.29317632  0.10875744    -0.12100
C282        C  0.98500960  0.31976855  0.10261262     0.04900
C283        C  0.47717710  0.32919564  0.07268483    -0.07400
C284        C  0.48320093  0.31071734  0.04943341    -0.08100
C285        C  0.99449970  0.28198534  0.05639417    -0.02700
C286        C  0.00287500  0.27393755  0.08605463     0.04100
N287        N  0.01369888  0.24631288  0.09374624     0.66600
H288        H  0.00594893  0.28735034  0.13144101     0.15500
H289        H  0.47505817  0.31694204  0.02703188     0.15200
N290        N  0.45896169  0.35569220  0.06653802     0.74300
O291        O  0.04012211  0.24145986  0.11494954    -0.39100
O292        O  0.99081306  0.22709474  0.08342908    -0.39100
O293        O  0.47048108  0.36841396  0.04354315    -0.39800
O294        O  0.42631563  0.36438044  0.08129972    -0.39800
C295        C  0.11646353  0.20743178  0.30049673    -0.12100
C296        C  0.11205801  0.18398105  0.28303626     0.04900
C297        C  0.13766975  0.18160753  0.25708686    -0.07400
C298        C  0.16871648  0.20170268  0.25022780    -0.08100
C299        C  0.17565015  0.22402292  0.26902129    -0.02700
C300        C  0.14730735  0.22758425  0.29351435     0.04100
N301        N  0.14621997  0.25225739  0.31005179     0.66600
H302        H  0.09542882  0.21032204  0.31967895     0.15500
H303        H  0.18873327  0.19940532  0.23049309     0.15200
N304        N  0.13497769  0.15811066  0.23859740     0.74300
O305        O  0.11456825  0.26863108  0.30506283    -0.39100
O306        O  0.16490103  0.25285739  0.33509687    -0.39100
O307        O  0.11319886  0.15937413  0.21467856    -0.39800
O308        O  0.16199595  0.13871921  0.24264707    -0.39800
C309        C  0.39604343  0.21095662  0.29940044    -0.12100
C310        C  0.41053947  0.19243049  0.27791787     0.04900
C311        C  0.39316219  0.19400308  0.24907081    -0.07400
C312        C  0.35740199  0.21154670  0.24322278    -0.08100
C313        C  0.34093696  0.22929460  0.26504333    -0.02700
C314        C  0.36268379  0.23016049  0.29294238     0.04100
N315        N  0.35166886  0.25011650  0.31487765     0.66600
H316        H  0.41053893  0.21027898  0.32143048     0.15500
H317        H  0.34012629  0.20972175  0.22229775     0.15200
N318        N  0.40876403  0.17616253  0.22633201     0.74300
O319        O  0.34722213  0.24280724  0.34150808    -0.39100
O320        O  0.36011355  0.27472989  0.30966080    -0.39100
O321        O  0.39227719  0.15278154  0.22341153    -0.39800
O322        O  0.44116839  0.18309608  0.21046162    -0.39800
C323        C  0.35976228  0.08187696  0.25972517    -0.12100
C324        C  0.39417164  0.07322823  0.27859567     0.04900
C325        C  0.39502255  0.04601265  0.28853386    -0.07400
C326        C  0.36094624  0.02822127  0.28024535    -0.08100
C327        C  0.32611933  0.03686609  0.26169567    -0.02700
C328        C  0.32586452  0.06401625  0.25110767     0.04100
N329        N  0.29113555  0.07382375  0.23192686     0.66600
H330        H  0.35875730  0.10279550  0.25211196     0.15500
H331        H  0.36049029  0.50638383  0.28881817     0.15200
N332        N  0.43072725  0.03604851  0.30665453     0.74300
O333        O  0.27340192  0.09678141  0.23655995    -0.39100
O334        O  0.28192886  0.06116153  0.20839753    -0.39100
O335        O  0.42249742  0.02381312  0.33057512    -0.39800
O336        O  0.46993993  0.03623227  0.29689347    -0.39800
C337        C  0.14464321  0.04110123  0.24245760    -0.12100
C338        C  0.16281596  0.02388060  0.26431487     0.04900
C339        C  0.14455441  0.02471098  0.29314259    -0.07400
C340        C  0.11312741  0.04488187  0.30028078    -0.08100
C341        C  0.09709126  0.06305978  0.27875532    -0.02700
C342        C  0.11108644  0.05999701  0.24921029     0.04100
N343        N  0.09408793  0.07727792  0.22627908     0.66600
H344        H  0.15855635  0.04106852  0.22035527     0.15500
H345        H  0.10137073  0.04655621  0.32287958     0.15200
N346        N  0.15802574  0.00567287  0.31545890     0.74300
O347        O  0.11927548  0.09446939  0.21436533    -0.39100
O348        O  0.05809506  0.07115967  0.21358760    -0.39100
O349        O  0.16670815  0.01397961  0.34129451    -0.39800
O350        O  0.14957123  0.98083531  0.31163867    -0.39800
C351        C  0.01260714  0.21971790  0.43361036    -0.12100
C352        C  0.99696594  0.20666602  0.45935369     0.04900
C353        C  0.48227670  0.17976481  0.45557387    -0.07400
C354        C  0.48249157  0.16691296  0.42768475    -0.08100
C355        C  0.99729301  0.17991923  0.40368960    -0.02700
C356        C  0.01269437  0.20667041  0.40597415     0.04100
N357        N  0.02668560  0.22117799  0.38023875     0.66600
H358        H  0.02354940  0.24065327  0.43485456     0.15500
H359        H  0.47082903  0.14618472  0.42569025     0.15200
N360        N  0.46615709  0.16464962  0.48067976     0.74300
O361        O  0.99806136  0.22996263  0.36201240    -0.39100
O362        O  0.06660242  0.22843364  0.37781650    -0.39100
O363        O  0.44259203  0.14376899  0.47682736    -0.39800
O364        O  0.47730526  0.17087184  0.50670821    -0.39800
C365        C  0.37331705  0.06302939  0.48911653    -0.12100
C366        C  0.34948723  0.05999814  0.46268785     0.04900
C367        C  0.35746490  0.03674239  0.44497568    -0.07400
C368        C  0.39001476  0.01768222  0.45347891    -0.08100
C369        C  0.41563870  0.02178870  0.47900365    -0.02700
C370        C  0.40715353  0.04362311  0.99975572     0.04100
N371        N  0.43287978  0.04987990  0.02541543     0.66600
H372        H  0.36801096  0.07961412  0.00516911     0.15500
H373        H  0.39678877  0.00042577  0.43932250     0.15200
N374        N  0.33384294  0.03256666  0.41790292     0.74300
O375        O  0.41601206  0.04581389  0.05053697    -0.39100
O376        O  0.46312101  0.56699205  0.02229884    -0.39100
O377        O  0.35351909  0.03597175  0.39356639    -0.39800
O378        O  0.29709976  0.02039655  0.41835339    -0.39800
C379        C  0.13212328  0.06149624  0.49343086    -0.12100
C380        C  0.14671124  0.06320042  0.46415818     0.04900
C381        C  0.13001726  0.04482705  0.44298370    -0.07400
C382        C  0.09717400  0.02609536  0.45101832    -0.08100
C383        C  0.07998292  0.02571003  0.47993132    -0.02700
C384        C  0.10035064  0.04347586  0.00074170     0.04100
N385        N  0.08250058  0.04504279  0.02999140     0.66600
H386        H  0.14651457  0.07564392  0.00953894     0.15500
H387        H  0.08368911  0.01262841  0.43432545     0.15200
N388        N  0.14649796  0.04484153  0.41336041     0.74300
O389        O  0.10828203  0.04276220  0.05199647    -0.39100
O390        O  0.04496902  0.05600413  0.03361159    -0.39100
O391        O  0.18170390  0.03193282  0.40737568    -0.39800
O392        O  0.12332311  0.05490714  0.39266459    -0.39800
C393        C  0.00894002  0.06402487  0.45410841    -0.12100
C394        C  0.99612678  0.03701355  0.44963015     0.04900
C395        C  0.48753341  0.02666019  0.41733876    -0.07400
C396        C  0.49070618  0.04494594  0.39365370    -0.08100
C397        C  0.00551362  0.07234868  0.40116935    -0.02700
C398        C  0.01622506  0.08141870  0.43005651     0.04100
N399        N  0.03768077  0.10708938  0.43512596     0.66600
H400        H  0.01694616  0.07077699  0.47631259     0.15500
H401        H  0.48366625  0.03810554  0.37132335     0.15200
N402        N  0.47855804  0.99858818  0.41119828     0.74300
O403        O  0.03513155  0.11839890  0.46018372    -0.39100
O404        O  0.06639008  0.11546946  0.41707730    -0.39100
O405        O  0.44961475  0.99236698  0.39208339    -0.39800
O406        O  0.50475614  0.98037946  0.42064700    -0.39800
C407        C  0.38681266  0.47402150  0.02894782    -0.12100
C408        C  0.42189344  0.46578465  0.01051841     0.04900
C409        C  0.42175949  0.43895743  0.99911326    -0.07400
C410        C  0.38863042  0.42063802  0.00755460    -0.08100
C411        C  0.35431919  0.42859320  0.02647433    -0.02700
C412        C  0.35310236  0.45566780  0.03692020     0.04100
N413        N  0.31928072  0.46432669  0.05696158     0.66600
H414        H  0.38858775  0.99458575  0.04101023     0.15500
H415        H  0.38960451  0.40002220  0.99917100     0.15200
N416        N  0.45482951  0.43014670  0.97851090     0.74300
O417        O  0.32510201  0.46136613  0.08448575    -0.39100
O418        O  0.28748384  0.47889246  0.04763807    -0.39100
O419        O  0.47509696  0.40787190  0.98260072    -0.38200
O420        O  0.45768578  0.44190991  0.95374688    -0.39800
C421        C  0.13933899  0.43875616  0.99943548    -0.12100
C422        C  0.15353566  0.43812783  0.02902569     0.04900
C423        C  0.13807920  0.45859383  0.04861799    -0.07400
C424        C  0.10400412  0.47606549  0.03976577    -0.08100
C425        C  0.08603670  0.47431394  0.01135051    -0.02700
C426        C  0.10585642  0.45677133  0.99038768     0.04100
N427        N  0.08878634  0.45455150  0.96090917     0.66600
H428        H  0.15153550  0.42378896  0.98378073     0.15500
H429        H  0.09259514  0.99123207  0.05660806     0.15200
N430        N  0.15582388  0.46184598  0.07774607     0.74300
O431        O  0.04886307  0.44321707  0.46090689    -0.39100
O432        O  0.11470127  0.45733495  0.93923868    -0.39100
O433        O  0.18109751  0.48174274  0.08256919    -0.39800
O434        O  0.13640056  0.45076548  0.09929294    -0.39800
C435        C  0.02810491  0.43394284  0.04463353    -0.12100
C436        C  0.00549676  0.45903586  0.04431457     0.04900
C437        C  0.48883127  0.46985476  0.07223099    -0.07400
C438        C  0.49249596  0.45445594  0.09816863    -0.08100
C439        C  0.01431269  0.42907379  0.09737186    -0.02700
C440        C  0.03528969  0.41964744  0.07127613     0.04100
N441        N  0.06417481  0.39611178  0.07143382     0.66600
H442        H  0.04233282  0.42629608  0.02427442     0.15500
H443        H  0.47828442  0.46214691  0.11857526     0.15200
N444        N  0.47134542  0.49697119  0.07408430     0.74300
O445        O  0.07223290  0.38365456  0.04760272    -0.39100
O446        O  0.08759876  0.39059791  0.09394346    -0.39100
O447        O  0.43802413  0.50181067  0.09017135    -0.39800
O448        O  0.49449708  0.51658182  0.06505762    -0.39800
C449        C  0.00203465  0.47782971  0.52089824     0.02400
C450        C  0.04103219  0.48920679  0.50869091     0.02400
C451        C  0.04161398  0.00953559  0.98579075     0.02400
C452        C  0.49923717  0.01726648  0.97467763     0.02400
C453        C  0.45979275  0.00606157  0.98637908     0.02400
C454        C  0.45982034  0.48466095  0.50786486     0.02400
O455        O  0.46698709  0.16238424  0.85791407    -0.85200
O456        O  0.41955219  0.15108427  0.80733581    -0.82200
C457        C  0.43502456  0.16746207  0.78845426     0.98300
O458        O  0.47284752  0.16366914  0.77734764    -0.82300
O459        O  0.05935802  0.14680018  0.77338668    -0.84900
C460        C  0.07823664  0.16237842  0.79184115     1.02800
O461        O  0.07241820  0.15906286  0.81918029    -0.77700
O462        O  0.03288065  0.14679814  0.87171916    -0.77900
C463        C  0.00047928  0.16290719  0.87547411     1.02700
O464        O  0.47232638  0.10602884  0.87204533    -0.85200
O465        O  0.43197875  0.09367764  0.81873760    -0.82300
C466        C  0.42527557  0.09177056  0.79123104     0.98300
O467        O  0.44402917  0.10796663  0.77342975    -0.82300
O468        O  0.02975868  0.09101845  0.77509865    -0.84900
C469        C  0.06738653  0.08627476  0.78638456     1.02800
O470        O  0.08321896  0.10184907  0.80605739    -0.77700
O471        O  0.03627367  0.09030232  0.85648052    -0.77900
C472        C  0.00437901  0.08986776  0.87441072     1.02700
Cr473      Cr  0.45151507  0.12810230  0.83728890     1.93700
Cr474      Cr  0.00090399  0.12735965  0.77778093     1.93200
Cr475      Cr  0.05247947  0.12470934  0.83666551     1.39100
O476        O  0.00150596  0.12686369  0.81726797    -1.22900
C477        C  0.49807050  0.22331695  0.98595659     0.02400
C478        C  0.45713756  0.23373406  0.99675783     0.02400
C479        C  0.45407593  0.25411691  0.51867421     0.02400
C480        C  0.99538992  0.26392823  0.53173596     0.02400
C481        C  0.03653580  0.25513995  0.51965562     0.02400
C482        C  0.03845078  0.23168970  0.99967211     0.02400
O483        O  0.04292662  0.40930631  0.64505329    -0.85200
O484        O  0.08576922  0.39261859  0.69624832    -0.82200
C485        C  0.07310715  0.41030575  0.71475110     0.98300
O486        O  0.03444365  0.40994282  0.72523369    -0.82300
O487        O  0.44453143  0.40181447  0.72714149    -0.84900
C488        C  0.42970831  0.41941941  0.70902659     1.02800
O489        O  0.43581681  0.41609283  0.68168417    -0.77700
O490        O  0.47295617  0.39934248  0.62948845    -0.77900
C491        C  0.01134531  0.41331321  0.62709079     1.02700
O492        O  0.02477492  0.35432402  0.63016702    -0.85200
O493        O  0.06093522  0.33742586  0.68317943    -0.82300
C494        C  0.06764326  0.33490710  0.71062109     0.98300
O495        O  0.05098968  0.35212814  0.72840933    -0.82300
O496        O  0.46094411  0.34381803  0.72503047    -0.84900
C497        C  0.42302595  0.34271156  0.71316676     1.02800
O498        O  0.41070419  0.36035069  0.69436126    -0.77700
O499        O  0.45513913  0.34427116  0.64424979    -0.77900
C500        C  0.98886829  0.34161555  0.62677760     1.02700
Cr501      Cr  0.04969974  0.37366081  0.66522879     1.93700
Cr502      Cr  0.99756178  0.37693303  0.72324304     1.93200
Cr503      Cr  0.44739545  0.37983544  0.66416817     1.39100
O504        O  0.99855750  0.37720641  0.68398879    -1.22900
C505        C  0.24462906  0.02349217  0.76899022     0.02400
C506        C  0.20563799  0.01082507  0.75837511     0.02400
C507        C  0.20986467  0.48789527  0.73935507     0.02400
C508        C  0.25172610  0.48150788  0.72671321     0.02400
C509        C  0.29068505  0.49431178  0.73767267     0.02400
C510        C  0.28652445  0.01722396  0.75657014     0.02400
O511        O  0.26948950  0.35224079  0.62297083    -0.85200
O512        O  0.30863811  0.33554793  0.57125656    -0.82200
C513        C  0.31597512  0.33223566  0.54405204     0.98300
O514        O  0.30045495  0.34910575  0.52530878    -0.82300
O515        O  0.21012450  0.33974728  0.52646755    -0.84900
C516        C  0.17153457  0.33819440  0.53717669     1.02800
O517        O  0.15844485  0.35575972  0.55585889    -0.77700
O518        O  0.20372043  0.34035396  0.60658546    -0.77900
C519        C  0.23480324  0.33804057  0.62516472     1.02700
O520        O  0.28604400  0.40723274  0.60687412    -0.85200
O521        O  0.33327659  0.39068630  0.55806208    -0.82300
C522        C  0.32127544  0.40843902  0.53931578     0.98300
O523        O  0.28301525  0.40747775  0.52783013    -0.82300
O524        O  0.19333507  0.39828968  0.52384117    -0.84900
C525        C  0.17810161  0.41561681  0.54206090     1.02800
O526        O  0.18219469  0.41167377  0.56940166    -0.77700
O527        O  0.21911884  0.39656532  0.62167940    -0.77900
C528        C  0.25424868  0.41039639  0.62452956     1.02700
Cr529      Cr  0.29568374  0.37150102  0.58812414     1.93700
Cr530      Cr  0.24658727  0.37363193  0.52862419     1.93200
Cr531      Cr  0.19451458  0.37588455  0.58678466     1.39100
O532        O  0.24555123  0.37361833  0.56781296    -1.22900
C533        C  0.25601903  0.23074770  0.77251101     0.02400
C534        C  0.29499674  0.24126128  0.75912907     0.02400
C535        C  0.29107701  0.26109145  0.73654332     0.02400
C536        C  0.24844927  0.26947761  0.72708846     0.02400
C537        C  0.21026182  0.26160360  0.74277440     0.02400
C538        C  0.21340992  0.24073651  0.76399434     0.02400
O539        O  0.21219739  0.09362995  0.88941166    -0.85200
O540        O  0.16574203  0.10444988  0.93917643    -0.82200
C541        C  0.17926794  0.08552617  0.95610753     0.98300
O542        O  0.21720130  0.08655534  0.96793775    -0.82300
O543        O  0.30597674  0.09785852  0.97346766    -0.84900
C544        C  0.32231461  0.08169006  0.95454483     1.02800
O545        O  0.31695185  0.08628153  0.92736102    -0.77700
O546        O  0.27967527  0.10474637  0.87594941    -0.77900
C547        C  0.24478364  0.09100245  0.87239574     1.02700
O548        O  0.22655134  0.15004487  0.87868080    -0.85200
O549        O  0.18690337  0.16182065  0.93210208    -0.82300
C550        C  0.17950778  0.16188231  0.95952515     0.98300
O551        O  0.19561618  0.14323028  0.97582124    -0.82300
O552        O  0.28475928  0.15486414  0.97528609    -0.84900
C553        C  0.32264425  0.15801794  0.96410646     1.02800
O554        O  0.33704981  0.14199229  0.94433341    -0.77700
O555        O  0.29361672  0.15966279  0.89453936    -0.77900
C556        C  0.26177450  0.16378031  0.87690222     1.02700
Cr557      Cr  0.20152818  0.12743438  0.91143438     1.93700
Cr558      Cr  0.25097530  0.12086392  0.97029643     1.93200
Cr559      Cr  0.30310262  0.12316846  0.91216878     1.39100
O560        O  0.25193371  0.12397810  0.93121872    -1.22900
C561        C  0.25760544  0.22537575  0.82683761    -0.12100
C562        C  0.25989051  0.21284138  0.79895685     0.04900
C563        C  0.26855013  0.18459501  0.79731794    -0.07400
C564        C  0.27156767  0.16944995  0.82352281    -0.08100
C565        C  0.26704712  0.18184344  0.85129084    -0.02700
C566        C  0.26171232  0.21028826  0.85312746     0.04100
N567        N  0.26064507  0.22409877  0.88115702     0.66600
H568        H  0.25366880  0.24729142  0.82802852     0.15500
H569        H  0.27612900  0.14756864  0.82219512     0.15200
N570        N  0.27424063  0.17082425  0.76962525     0.74300
O571        O  0.28825577  0.21779481  0.90116708    -0.39100
O572        O  0.23750680  0.24542764  0.88420405    -0.39100
O573        O  0.30607827  0.15423230  0.76662347    -0.39800
O574        O  0.24267605  0.17017279  0.75124191    -0.39800
C575        C  0.22927150  0.29217394  0.64768311    -0.12100
C576        C  0.23036713  0.32046563  0.65114687     0.04900
C577        C  0.23387546  0.33184191  0.67975164    -0.07400
C578        C  0.24299346  0.31481524  0.70376631    -0.08100
C579        C  0.24354142  0.28662964  0.70038762    -0.02700
C580        C  0.23478057  0.27506359  0.67231908     0.04100
N581        N  0.23122264  0.24618671  0.66856355     0.66600
H582        H  0.22566085  0.28340735  0.62577316     0.15500
H583        H  0.24787675  0.32348466  0.72547751     0.15200
N584        N  0.22468035  0.36017361  0.68495444     0.74300
O585        O  0.26297507  0.23063397  0.67583845    -0.39100
O586        O  0.19756573  0.23634593  0.65582814    -0.39100
O587        O  0.19200658  0.37128150  0.67202394    -0.39800
O588        O  0.24134010  0.37191450  0.70720576    -0.39800
C589        C  0.27908834  0.43947301  0.70031034    -0.12100
C590        C  0.25368743  0.46356113  0.69988839     0.04900
C591        C  0.23052757  0.47062472  0.67352040    -0.07400
C592        C  0.23101922  0.45253876  0.64957127    -0.08100
C593        C  0.25811017  0.42939966  0.64957587    -0.02700
C594        C  0.28455320  0.42348678  0.67478881     0.04100
N595        N  0.31684229  0.40167450  0.67502130     0.66600
H596        H  0.29606900  0.43346076  0.72042384     0.15500
H597        H  0.21119338  0.45705013  0.63007275     0.15200
N598        N  0.20758904  0.49624832  0.67031841     0.74300
O599        O  0.33967971  0.39675589  0.65225119    -0.39100
O600        O  0.32874378  0.39100791  0.69927808    -0.39100
O601        O  0.22509495  0.51783862  0.67978623    -0.39800
O602        O  0.17336111  0.49798860  0.65411804    -0.39800
C603        C  0.26276609  0.04795821  0.84754504    -0.12100
C604        C  0.24126580  0.07317392  0.84681878     0.04900
C605        C  0.21918852  0.08200017  0.82096310    -0.07400
C606        C  0.22210188  0.06618362  0.79529083    -0.08100
C607        C  0.24289241  0.04054298  0.79603753    -0.02700
C608        C  0.26213704  0.03096546  0.82278113     0.04100
N609        N  0.27917904  0.00370364  0.82546233     0.66600
H610        H  0.27853803  0.04109600  0.86780381     0.15500
H611        H  0.20673830  0.07343915  0.77501671     0.15200
N612        N  0.19337317  0.10666787  0.82072970     0.74300
O613        O  0.31901880  0.49941465  0.84029793    -0.39100
O614        O  0.25912442  0.48274511  0.82051940    -0.39100
O615        O  0.19605499  0.12301637  0.79925185    -0.39800
O616        O  0.16387667  0.11048731  0.84010574    -0.39800
C617        C  0.12608418  0.31936168  0.74615071    -0.12100
C618        C  0.09870745  0.31345460  0.72172819     0.04900
C619        C  0.10534701  0.28859638  0.70653251    -0.07400
C620        C  0.13961661  0.27076752  0.71526762    -0.08100
C621        C  0.16827559  0.27741089  0.73864976    -0.02700
C622        C  0.16105623  0.30190139  0.75446611     0.04100
N623        N  0.19121982  0.31055263  0.77723837     0.66600
H624        H  0.12214197  0.33851470  0.75777602     0.15500
H625        H  0.14523303  0.25223122  0.70282532     0.15200
N626        N  0.07851245  0.28152998  0.68157039     0.74300
O627        O  0.18757858  0.30116824  0.80309512    -0.39100
O628        O  0.21357385  0.33188235  0.77350983    -0.39100
O629        O  0.09561638  0.28064445  0.65611517    -0.39800
O630        O  0.04017789  0.27203659  0.68555658    -0.39800
C631        C  0.38850241  0.29861713  0.70112446    -0.12100
C632        C  0.39253848  0.32059055  0.72072883     0.04900
C633        C  0.36383144  0.32252414  0.74508647    -0.07400
C634        C  0.33214488  0.30234544  0.74964499    -0.08100
C635        C  0.32873639  0.27979931  0.73073430    -0.02700
C636        C  0.35672296  0.27828861  0.70571621     0.04100
N637        N  0.35180169  0.25759022  0.68376631     0.66600
H638        H  0.40941378  0.29762814  0.68165418     0.15500
H639        H  0.30906340  0.30458903  0.76786660     0.15200
N640        N  0.36490412  0.34545639  0.76454360     0.74300
O641        O  0.37397526  0.23586468  0.68647822    -0.39100
O642        O  0.33829307  0.26439150  0.65827657    -0.39100
O643        O  0.32985286  0.35908193  0.76892078    -0.39800
O644        O  0.39810419  0.34897907  0.78123831    -0.39800
C645        C  0.38994839  0.46348723  0.69890887    -0.12100
C646        C  0.40198411  0.44285310  0.71929044     0.04900
C647        C  0.38331790  0.44370045  0.74802838    -0.07400
C648        C  0.34903410  0.46220190  0.75411820    -0.08100
C649        C  0.33460636  0.48114814  0.73287049    -0.02700
C650        C  0.35731454  0.48300894  0.70586193     0.04100
N651        N  0.34617563  0.00575163  0.68300111     0.66600
H652        H  0.40509469  0.46409449  0.67719202     0.15500
H653        H  0.33190575  0.46089642  0.77514853     0.15200
N654        N  0.39719618  0.42530476  0.77091636     0.74300
O655        O  0.36109521  0.02933046  0.68751651    -0.39100
O656        O  0.32810391  0.00025933  0.65846806    -0.39100
O657        O  0.43535165  0.42780371  0.78224928    -0.39800
O658        O  0.36873558  0.41099810  0.78403050    -0.39800
C659        C  0.14053340  0.42402011  0.74188727    -0.12100
C660        C  0.10438709  0.43130410  0.72392493     0.04900
C661        C  0.10144705  0.45770062  0.71195605    -0.07400
C662        C  0.13566607  0.47622421  0.71729392    -0.08100
C663        C  0.17223455  0.46893128  0.73505938    -0.02700
C664        C  0.17393172  0.44280487  0.74806860     0.04100
N665        N  0.20918144  0.43524375  0.76786380     0.66600
H666        H  0.14283916  0.40365777  0.75106648     0.15500
H667        H  0.13384974  0.49613406  0.70718208     0.15200
N668        N  0.06496351  0.46541124  0.69321599     0.74300
O669        O  0.20694486  0.44206670  0.79473943    -0.39100
O670        O  0.23694428  0.41726897  0.76023528    -0.39100
O671        O  0.02601319  0.46618758  0.70340471    -0.39800
O672        O  0.07170714  0.47194926  0.66657724    -0.39800
C673        C  0.12221044  0.17381243  0.99627014    -0.12100
C674        C  0.14836570  0.18201526  0.97240630     0.04900
C675        C  0.14207416  0.20828673  0.96047892    -0.07400
C676        C  0.10524202  0.22564151  0.47063228    -0.08100
C677        C  0.07999405  0.21617818  0.99389363    -0.02700
C678        C  0.08783495  0.19027766  0.00721677     0.04100
N679        N  0.06106861  0.17985054  0.03112443     0.66600
H680        H  0.12749598  0.15376794  0.00570954     0.15500
H681        H  0.09980200  0.24538019  0.46045768     0.15200
N682        N  0.16547607  0.21788039  0.43578434     0.74300
O683        O  0.06309851  0.15496914  0.03812284    -0.39100
O684        O  0.03608344  0.19526419  0.04597046    -0.39100
O685        O  0.15328879  0.21424700  0.40929682    -0.39800
O686        O  0.19630216  0.23436840  0.44140207    -0.39800
C687        C  0.39502989  0.20243601  0.50977715    -0.12100
C688        C  0.41470619  0.21981407  0.98903611     0.04900
C689        C  0.39700299  0.21907846  0.95994420    -0.07400
C690        C  0.36670073  0.19867052  0.95243531    -0.08100
C691        C  0.35095323  0.18051592  0.97379823    -0.02700
C692        C  0.36227429  0.18351311  0.50262811     0.04100
N693        N  0.34768057  0.16482684  0.52476877     0.66600
H694        H  0.41022856  0.20144710  0.53147619     0.15500
H695        H  0.35539076  0.19687621  0.92972155     0.15200
N696        N  0.40941513  0.23849158  0.93782869     0.74300
O697        O  0.36497933  0.14139882  0.52635202    -0.39100
O698        O  0.32268521  0.17305645  0.54530636    -0.39100
O699        O  0.40110287  0.26333410  0.94217263    -0.39800
O700        O  0.41645759  0.23060638  0.91164824    -0.39800
C701        C  0.14889345  0.28923589  0.53886480    -0.12100
C702        C  0.14105144  0.31574803  0.52824679     0.04900
C703        C  0.10186319  0.32087368  0.51185560    -0.07400
C704        C  0.06975043  0.30033761  0.50908471    -0.08100
C705        C  0.07563703  0.27429241  0.52167228    -0.02700
C706        C  0.11707769  0.26837306  0.53553476     0.04100
N707        N  0.12767044  0.24179923  0.54671956     0.66600
H708        H  0.17931019  0.28499753  0.55101012     0.15500
H709        H  0.03952172  0.30470770  0.49678977     0.15200
N710        N  0.09493919  0.34640916  0.49696411     0.74300
O711        O  0.16622917  0.23206716  0.54330398    -0.39100
O712        O  0.10078894  0.22950637  0.56319428    -0.39100
O713        O  0.12882099  0.35401026  0.98113953    -0.39800
O714        O  0.05618099  0.35603377  0.49397582    -0.39800
C715        C  0.40103471  0.28964997  0.50250492    -0.12100
C716        C  0.41225191  0.26990852  0.52381320     0.04900
C717        C  0.38815059  0.26926264  0.55060240    -0.07400
C718        C  0.35523334  0.28891957  0.55578493    -0.08100
C719        C  0.34545104  0.30942338  0.53496477    -0.02700
C720        C  0.36752857  0.30893582  0.50747785     0.04100
N721        N  0.35877968  0.32895165  0.48518327     0.66600
H722        H  0.42096993  0.29149861  0.48274920     0.15500
H723        H  0.34186398  0.28876438  0.07763534     0.15200
N724        N  0.40216079  0.25040192  0.07444801     0.74300
O725        O  0.38338937  0.34954454  0.48332925    -0.39100
O726        O  0.33254957  0.32347147  0.46416115    -0.39100
O727        O  0.41526089  0.25942478  0.09913518    -0.39800
O728        O  0.38389705  0.22740841  0.07382844    -0.39800
C729        C  0.00321193  0.29566979  0.60835845    -0.12100
C730        C  0.98651689  0.32172680  0.60285681     0.04900
C731        C  0.47384753  0.32877046  0.57422950    -0.07400
C732        C  0.47925405  0.31053585  0.55070853    -0.08100
C733        C  0.99491356  0.28410647  0.55631486    -0.02700
C734        C  0.00676585  0.27653199  0.58557986     0.04100
N735        N  0.01997123  0.24926689  0.59297246     0.66600
H736        H  0.01259619  0.29002858  0.63073606     0.15500
H737        H  0.47132985  0.31718848  0.52841493     0.15200
N738        N  0.45681809  0.35557896  0.56848182     0.74300
O739        O  0.04973812  0.24526461  0.61232520    -0.39100
O740        O  0.99573962  0.22965256  0.58530035    -0.39100
O741        O  0.47227275  0.36947667  0.54744044    -0.39800
O742        O  0.42198536  0.36361415  0.58133872    -0.39800
C743        C  0.11522272  0.20638840  0.80136859    -0.12100
C744        C  0.10834104  0.18434199  0.78213943     0.04900
C745        C  0.13194736  0.18344216  0.75523495    -0.07400
C746        C  0.16390132  0.20326223  0.74931957    -0.08100
C747        C  0.17352325  0.22385375  0.76983988    -0.02700
C748        C  0.14691411  0.22626446  0.79531710     0.04100
N749        N  0.14861538  0.24955400  0.81407699     0.66600
H750        H  0.09575839  0.20828503  0.82141124     0.15500
H751        H  0.18269326  0.20197796  0.72892758     0.15200
N752        N  0.12620246  0.16170158  0.73460500     0.74300
O753        O  0.11830480  0.26724738  0.81120256    -0.39100
O754        O  0.16811807  0.24755173  0.83876785    -0.39100
O755        O  0.09459169  0.16273731  0.71616894    -0.39800
O756        O  0.15739716  0.14481725  0.73074055    -0.39800
C757        C  0.39422216  0.21010042  0.79923118    -0.12100
C758        C  0.40694549  0.19027786  0.77862570     0.04900
C759        C  0.38819815  0.19058403  0.75009524    -0.07400
C760        C  0.35312756  0.20851897  0.74378320    -0.08100
C761        C  0.33867448  0.22769367  0.76475770    -0.02700
C762        C  0.36152906  0.22958536  0.79216470     0.04100
N763        N  0.35207741  0.25088945  0.81292997     0.66600
H764        H  0.40979081  0.21032823  0.82093887     0.15500
H765        H  0.33510690  0.20626478  0.72311560     0.15200
N766        N  0.40205122  0.17136211  0.72818957     0.74300
O767        O  0.35183391  0.24575477  0.84034024    -0.39100
O768        O  0.35493581  0.27532301  0.80469743    -0.39100
O769        O  0.38557927  0.14783790  0.72763320    -0.39800
O770        O  0.43311094  0.17727023  0.71071257    -0.39800
C771        C  0.35862561  0.08039963  0.76123974    -0.12100
C772        C  0.39300789  0.07164888  0.78006265     0.04900
C773        C  0.39385887  0.04438189  0.78982054    -0.07400
C774        C  0.35972261  0.02665656  0.78144565    -0.08100
C775        C  0.32496049  0.03543630  0.76288861    -0.02700
C776        C  0.32482336  0.06260125  0.75243298     0.04100
N777        N  0.29021986  0.07249732  0.73322320     0.66600
H778        H  0.35753144  0.10135413  0.75381060     0.15500
H779        H  0.36308193  0.50465287  0.78938460     0.15200
N780        N  0.42969035  0.03429122  0.80773444     0.74300
O781        O  0.27146785  0.09502463  0.73850750    -0.39100
O782        O  0.28225977  0.06051259  0.70907813    -0.39100
O783        O  0.42170868  0.02277469  0.83211296    -0.39800
O784        O  0.46852673  0.03348060  0.79735061    -0.39800
C785        C  0.14543700  0.04187170  0.74191442    -0.12100
C786        C  0.16163826  0.02411104  0.76392325     0.04900
C787        C  0.14114142  0.02429878  0.79201648    -0.07400
C788        C  0.10865542  0.04402230  0.79839908    -0.08100
C789        C  0.09434623  0.06269360  0.77681818    -0.02700
C790        C  0.11134267  0.06064610  0.74786763     0.04100
N791        N  0.09685452  0.07878796  0.72492685     0.66600
H792        H  0.16114168  0.04218411  0.72035675     0.15500
H793        H  0.09510048  0.04515955  0.82058252     0.15200
N794        N  0.15353328  0.00514269  0.81444440     0.74300
O795        O  0.12491828  0.09315168  0.71150940    -0.39100
O796        O  0.05849861  0.07612612  0.71397219    -0.39100
O797        O  0.16394022  0.01355196  0.83995247    -0.39800
O798        O  0.14209608  0.98068278  0.81132347    -0.39800
C799        C  0.01671386  0.21792266  0.93332530    -0.12100
C800        C  0.00046486  0.20508837  0.95902615     0.04900
C801        C  0.48324250  0.17893662  0.95661093    -0.07400
C802        C  0.48227017  0.16602966  0.92878463    -0.08100
C803        C  0.99842458  0.17875308  0.90314614    -0.02700
C804        C  0.01580216  0.20505707  0.90557452     0.04100
N805        N  0.03091865  0.21931429  0.87991890     0.66600
H806        H  0.02857559  0.23865864  0.93464678     0.15500
H807        H  0.47073765  0.14524974  0.92707715     0.15200
N808        N  0.46812912  0.16391551  0.98209342     0.74300
O809        O  0.00371698  0.22562210  0.85963813    -0.39100
O810        O  0.06985504  0.22859706  0.87920617    -0.39100
O811        O  0.44552790  0.14256493  0.97875845    -0.39800
O812        O  0.47880330  0.17089101  0.00797949    -0.39800
C813        C  0.37378747  0.06186758  0.99141462    -0.12100
C814        C  0.35113622  0.05891742  0.96451836     0.04900
C815        C  0.35962069  0.03558243  0.94703723    -0.07400
C816        C  0.39229017  0.01670469  0.95592740    -0.08100
C817        C  0.41759548  0.02118209  0.98153297    -0.02700
C818        C  0.40659460  0.04455148  0.49708178     0.04100
N819        N  0.43328533  0.05051904  0.52242252     0.66600
H820        H  0.36812889  0.08082554  0.50289410     0.15500
H821        H  0.39938877  0.99926679  0.94207907     0.15200
N822        N  0.33620283  0.03107967  0.91994060     0.74300
O823        O  0.42327249  0.03986529  0.54687075    -0.39100
O824        O  0.45890333  0.56460369  0.52517263    -0.39100
O825        O  0.35617047  0.03375541  0.89560286    -0.39800
O826        O  0.29879713  0.01968809  0.92049977    -0.39800
C827        C  0.13405012  0.06155828  0.99304309    -0.12100
C828        C  0.14901645  0.06329686  0.96389239     0.04900
C829        C  0.13227378  0.04521624  0.94242302    -0.07400
C830        C  0.09925127  0.02652519  0.95017122    -0.08100
C831        C  0.08193846  0.02600811  0.97903295    -0.02700
C832        C  0.09872391  0.04325318  0.50145105     0.04100
N833        N  0.08150073  0.04474595  0.53085548     0.66600
H834        H  0.14468046  0.07567579  0.50979555     0.15500
H835        H  0.08574278  0.01320005  0.93333850     0.15200
N836        N  0.14877744  0.04552730  0.91280156     0.74300
O837        O  0.10751702  0.04128568  0.55256053    -0.39100
O838        O  0.04516630  0.05699538  0.53501694    -0.39100
O839        O  0.18281385  0.03164896  0.90638358    -0.39800
O840        O  0.12614283  0.05651435  0.89239322    -0.39800
C841        C  0.01069126  0.06349051  0.95280623    -0.12100
C842        C  0.99739591  0.03648624  0.94893170     0.04900
C843        C  0.48845488  0.02654786  0.91999023    -0.07400
C844        C  0.49084209  0.04452844  0.89601536    -0.08100
C845        C  0.00524381  0.07132210  0.89982076    -0.02700
C846        C  0.01737579  0.08055688  0.92839249     0.04100
N847        N  0.03975059  0.10603373  0.93271933     0.66600
H848        H  0.01962716  0.07046411  0.97477220     0.15500
H849        H  0.48304160  0.03742244  0.87388900     0.15200
N850        N  0.48005800  0.99835901  0.91426770     0.74300
O851        O  0.03809987  0.11778942  0.95756579    -0.39100
O852        O  0.06860059  0.11359134  0.91433680    -0.39100
O853        O  0.45092973  0.99169071  0.89546175    -0.39800
O854        O  0.50773253  0.98068094  0.92295605    -0.39800
C855        C  0.38417945  0.47507607  0.53004959    -0.12100
C856        C  0.42082773  0.46641830  0.51323512     0.04900
C857        C  0.42245070  0.43899619  0.50365575    -0.07400
C858        C  0.38970231  0.42062045  0.51250215    -0.08100
C859        C  0.35371033  0.42909904  0.52965403    -0.02700
C860        C  0.35063746  0.45667281  0.53820200     0.04100
N861        N  0.31518244  0.46585017  0.55668205     0.66600
H862        H  0.40299504  0.98818615  0.55256091     0.15500
H863        H  0.39196127  0.39959489  0.50547533     0.15200
N864        N  0.45634690  0.42976230  0.48390690     0.74300
O865        O  0.31707155  0.46165207  0.58424961    -0.39100
O866        O  0.28582160  0.48167688  0.54629275    -0.39100
O867        O  0.47613340  0.40745223  0.48877900    -0.38200
O868        O  0.45967886  0.44082543  0.45878859    -0.39800
C869        C  0.13658053  0.43986844  0.50226127    -0.12100
C870        C  0.15188937  0.43937210  0.53161409     0.04900
C871        C  0.13737487  0.46001696  0.55127030    -0.07400
C872        C  0.10344878  0.47784634  0.54272417    -0.08100
C873        C  0.08448444  0.47602356  0.51454188    -0.02700
C874        C  0.10315747  0.45806334  0.49354649     0.04100
N875        N  0.08494185  0.45566516  0.46439884     0.66600
H876        H  0.14786075  0.42467296  0.48656256     0.15500
H877        H  0.08743403  0.99018434  0.55810269     0.15200
N878        N  0.15618980  0.46304118  0.58010976     0.74300
O879        O  0.05178663  0.44330292  0.95683933    -0.39100
O880        O  0.10961183  0.45946701  0.44228016    -0.39100
O881        O  0.18924475  0.47842570  0.58324020    -0.39800
O882        O  0.13359653  0.45661197  0.60250519    -0.39800
C883        C  0.02658555  0.43571280  0.54821545    -0.12100
C884        C  0.00514009  0.46117233  0.54854215     0.04900
C885        C  0.48544098  0.47022211  0.57471083    -0.07400
C886        C  0.48833936  0.45424129  0.60036612    -0.08100
C887        C  0.01634780  0.43115862  0.60135100    -0.02700
C888        C  0.03470452  0.42126000  0.57462409     0.04100
N889        N  0.06178605  0.39696336  0.57396961     0.66600
H890        H  0.03902775  0.42780284  0.52745265     0.15500
H891        H  0.47215509  0.46104909  0.62048024     0.15200
N892        N  0.46571299  0.49677032  0.57666380     0.74300
O893        O  0.06692590  0.38409775  0.55003485    -0.39100
O894        O  0.08630131  0.39084923  0.59577933    -0.39100
O895        O  0.43108844  0.50034849  0.59188656    -0.39800
O896        O  0.48759959  0.51720879  0.56843382    -0.39800
C897        C  0.00512870  0.97693782  0.01859176     0.02400
C898        C  0.04431674  0.98815222  0.00637855     0.02400
C899        C  0.03809736  0.51033704  0.48781475     0.02400
C900        C  0.49708739  0.51736587  0.47535354     0.02400
C901        C  0.45749411  0.50608673  0.48687767     0.02400
C902        C  0.46233926  0.98450479  0.00706635     0.02400
O903        O  0.46746317  0.66265572  0.35760505    -0.85200
O904        O  0.41988555  0.65158432  0.30711010    -0.82200
C905        C  0.43563579  0.66803324  0.28840686     0.98300
O906        O  0.47337616  0.66404111  0.27725873    -0.82300
O907        O  0.06158678  0.64800377  0.27572024    -0.84900
C908        C  0.08102562  0.66284698  0.29465911     1.02800
O909        O  0.07474185  0.65908011  0.32188268    -0.77700
O910        O  0.03175746  0.64721573  0.37329868    -0.77900
C911        C  0.99891879  0.66318516  0.37638246     1.02700
O912        O  0.47198048  0.60629265  0.37201560    -0.85200
O913        O  0.43174247  0.59412523  0.31850174    -0.82300
C914        C  0.42521357  0.59223529  0.29097391     0.98300
O915        O  0.44412734  0.60838040  0.27319724    -0.82300
O916        O  0.03300999  0.59207240  0.27605489    -0.84900
C917        C  0.06998170  0.58680778  0.28802050     1.02800
O918        O  0.08478946  0.60157940  0.30881283    -0.77700
O919        O  0.03586695  0.59040165  0.35852337    -0.77900
C920        C  0.00354186  0.59011406  0.37610258     1.02700
Cr921      Cr  0.45162200  0.62843767  0.33707067     1.93700
Cr922      Cr  0.00334552  0.62811095  0.27917227     1.93200
Cr923      Cr  0.05309189  0.62477713  0.33887181     1.39100
O924        O  0.00282905  0.62708142  0.31862165    -1.22900
C925        C  0.49590401  0.72304887  0.48582574     0.02400
C926        C  0.45450526  0.73331128  0.49601235     0.02400
C927        C  0.45771728  0.75307577  0.02008666     0.02400
C928        C  0.99792007  0.76308881  0.03071370     0.02400
C929        C  0.03921928  0.75449549  0.01869537     0.02400
C930        C  0.03685987  0.73234560  0.49947447     0.02400
O931        O  0.04412183  0.90838463  0.14286357    -0.85200
O932        O  0.08759605  0.89311606  0.19425469    -0.82200
C933        C  0.07498982  0.91135199  0.21214410     0.98300
O934        O  0.03634944  0.91113645  0.22275863    -0.82300
O935        O  0.44616133  0.90367521  0.22565713    -0.84900
C936        C  0.43114310  0.92118820  0.20746054     1.02800
O937        O  0.43719429  0.91769570  0.18011791    -0.77700
O938        O  0.47563585  0.90084376  0.12827728    -0.77900
C939        C  0.01244969  0.91195745  0.12487745     1.02700
O940        O  0.02645764  0.85311137  0.12942372    -0.85200
O941        O  0.06276068  0.83750697  0.18291293    -0.82300
C942        C  0.06935463  0.83560657  0.21042947     0.98300
O943        O  0.05302110  0.85336348  0.22769867    -0.82300
O944        O  0.46167630  0.84556407  0.22380021    -0.84900
C945        C  0.42380546  0.84452532  0.21186152     1.02800
O946        O  0.41194813  0.86186180  0.19257585    -0.77700
O947        O  0.45722628  0.84578760  0.14268283    -0.77900
C948        C  0.99067501  0.84022368  0.12632898     1.02700
Cr949      Cr  0.05130025  0.87327728  0.16395349     1.93700
Cr950      Cr  0.99951069  0.87789390  0.22198949     1.93200
Cr951      Cr  0.44918832  0.88136170  0.16263969     1.39100
O952        O  0.00018461  0.87712701  0.18273888    -1.22900
C953        C  0.24552552  0.52382835  0.26744862     0.02400
C954        C  0.20664047  0.51102341  0.25678385     0.02400
C955        C  0.21117259  0.99001625  0.23687648     0.02400
C956        C  0.25318286  0.98389249  0.22419970     0.02400
C957        C  0.29203079  0.99688215  0.23509976     0.02400
C958        C  0.28748240  0.51770964  0.25509238     0.02400
O959        O  0.27280974  0.85292849  0.12324838    -0.85200
O960        O  0.31277096  0.83557644  0.07192967    -0.82200
C961        C  0.32011204  0.83184176  0.04478494     0.98300
O962        O  0.30413811  0.84820617  0.02567055    -0.82300
O963        O  0.21370167  0.83864131  0.02676645    -0.84900
C964        C  0.17502370  0.83722083  0.03738807     1.02800
O965        O  0.16195121  0.85498174  0.05586144    -0.77700
O966        O  0.20726412  0.84059484  0.10686164    -0.77900
C967        C  0.23813417  0.83871733  0.12563476     1.02700
O968        O  0.28895531  0.90777129  0.10596222    -0.85200
O969        O  0.33664977  0.89067560  0.05774586    -0.82300
C970        C  0.32451153  0.90799646  0.03855870     0.98300
O971        O  0.28643100  0.90652593  0.02686632    -0.82300
O972        O  0.19669039  0.89723821  0.02304153    -0.84900
C973        C  0.18123937  0.91476177  0.04098620     1.02800
O974        O  0.18538435  0.91118545  0.06836421    -0.77700
O975        O  0.22215709  0.89709117  0.12092697    -0.77900
C976        C  0.25709342  0.91114301  0.12349047     1.02700
Cr977      Cr  0.29908600  0.87174753  0.08804084     1.93700
Cr978      Cr  0.25009588  0.87265741  0.02836752     1.93200
Cr979      Cr  0.19787132  0.87573484  0.08640520     1.39100
O980        O  0.24899851  0.87329498  0.06755895    -1.22900
C981        C  0.25771474  0.73231298  0.27376048     0.02400
C982        C  0.29660122  0.74301323  0.26039204     0.02400
C983        C  0.29245214  0.76302176  0.23798460     0.02400
C984        C  0.24970867  0.77138176  0.22873516     0.02400
C985        C  0.21158710  0.76316736  0.24434439     0.02400
C986        C  0.21491903  0.74221606  0.26548320     0.02400
O987        O  0.21111293  0.59290887  0.38843448    -0.85200
O988        O  0.16317772  0.60375540  0.43775594    -0.82200
C989        C  0.17615326  0.58525442  0.45541253     0.98300
O990        O  0.21398095  0.58631900  0.46739865    -0.82300
O991        O  0.30289350  0.59734570  0.47296312    -0.84900
C992        C  0.31962597  0.58127856  0.45403120     1.02800
O993        O  0.31453054  0.58595435  0.42683735    -0.77700
O994        O  0.27826157  0.60484617  0.37521721    -0.77900
C995        C  0.24383730  0.59073464  0.37144481     1.02700
O996        O  0.22517196  0.64958707  0.37785808    -0.85200
O997        O  0.18377137  0.66111384  0.43073312    -0.82300
C998        C  0.17618120  0.66137538  0.45813464     0.98300
O999        O  0.19253608  0.64299497  0.47470450    -0.82300
O1000       O  0.28166840  0.65461635  0.47458046    -0.84900
C1001       C  0.31972422  0.65766078  0.46364581     1.02800
O1002       O  0.33448670  0.64129205  0.44437687    -0.77700
O1003       O  0.29150812  0.65954829  0.39478961    -0.77900
C1004       C  0.26016796  0.66364248  0.37677727     1.02700
Cr1005     Cr  0.19943667  0.62676517  0.41028958     1.93700
Cr1006     Cr  0.24794923  0.62054733  0.46960470     1.93200
Cr1007     Cr  0.30092327  0.62288940  0.41187680     1.39100
O1008       O  0.24942871  0.62350840  0.43054633    -1.22900
C1009       C  0.25980862  0.72609984  0.32791358    -0.12100
C1010       C  0.26174451  0.71398034  0.29981531     0.04900
C1011       C  0.26917918  0.68562421  0.29763286    -0.07400
C1012       C  0.27063698  0.66999759  0.32355270    -0.08100
C1013       C  0.26611412  0.68200747  0.35150980    -0.02700
C1014       C  0.26262965  0.71051254  0.35389873     0.04100
N1015       N  0.26196520  0.72388160  0.38217212     0.66600
H1016       H  0.25687407  0.74804773  0.32952787     0.15500
H1017       H  0.27426398  0.64807812  0.32185518     0.15200
N1018       N  0.27582004  0.67226190  0.26976390     0.74300
O1019       O  0.29007043  0.71737028  0.40178258    -0.39100
O1020       O  0.23916950  0.74528432  0.38565716    -0.39100
O1021       O  0.30581668  0.65432522  0.26745234    -0.39800
O1022       O  0.24722048  0.67446999  0.24943084    -0.39800
C1023       C  0.23165341  0.79326023  0.14894798    -0.12100
C1024       C  0.23332487  0.82157978  0.15193844     0.04900
C1025       C  0.23623116  0.83333747  0.18039026    -0.07400
C1026       C  0.24465282  0.81657163  0.20473493    -0.08100
C1027       C  0.24463968  0.78832774  0.20185522    -0.02700
C1028       C  0.23617949  0.77645850  0.17390357     0.04100
N1029       N  0.23218511  0.74756570  0.17054637     0.66600
H1030       H  0.22833014  0.78420618  0.12715176     0.15500
H1031       H  0.24977255  0.82557829  0.22623767     0.15200
N1032       N  0.22694089  0.86174647  0.18509255     0.74300
O1033       O  0.26364757  0.73191380  0.17811730    -0.39100
O1034       O  0.19860201  0.73779813  0.15766028    -0.39100
O1035       O  0.19491981  0.87277716  0.17138314    -0.39800
O1036       O  0.24242077  0.87363052  0.20763273    -0.39800
C1037       C  0.28052841  0.94140247  0.19883104    -0.12100
C1038       C  0.25565076  0.96563944  0.19766198     0.04900
C1039       C  0.23357277  0.97254097  0.17081359    -0.07400
C1040       C  0.23467738  0.95410668  0.14723838    -0.08100
C1041       C  0.26076745  0.93060483  0.14810767    -0.02700
C1042       C  0.28626550  0.92484852  0.17381654     0.04100
N1043       N  0.31788414  0.90267459  0.17498656     0.66600
H1044       H  0.29692149  0.93558960  0.21937901     0.15500
H1045       H  0.21558551  0.95870297  0.12680557     0.15200
N1046       N  0.21118151  0.99826210  0.16693201     0.74300
O1047       O  0.34038215  0.89652751  0.15241748    -0.39100
O1048       O  0.32951808  0.89277019  0.19968271    -0.39100
O1049       O  0.22849746  0.01984338  0.17657276    -0.39800
O1050       O  0.17757887  0.00002573  0.15015523    -0.39800
C1051       C  0.26264406  0.54794381  0.34632866    -0.12100
C1052       C  0.24097454  0.57311607  0.34562421     0.04900
C1053       C  0.21972933  0.58218080  0.31954311    -0.07400
C1054       C  0.22305372  0.56640622  0.29384776    -0.08100
C1055       C  0.24371649  0.54073361  0.29462034    -0.02700
C1056       C  0.26280682  0.53107819  0.32141683     0.04100
N1057       N  0.28106445  0.50403449  0.32392472     0.66600
H1058       H  0.27815180  0.54107601  0.36666942     0.15500
H1059       H  0.20811656  0.57372619  0.27345816     0.15200
N1060       N  0.19475316  0.60719230  0.31895480     0.74300
O1061       O  0.31671862  0.00156783  0.33884089    -0.39100
O1062       O  0.25739841  0.98504659  0.31814552    -0.39100
O1063       O  0.19672537  0.62272259  0.29674118    -0.39800
O1064       O  0.16692895  0.61233946  0.33905834    -0.39800
C1065       C  0.12616948  0.82012697  0.24718906    -0.12100
C1066       C  0.09987506  0.81419798  0.22221869     0.04900
C1067       C  0.10690178  0.78923390  0.20730342    -0.07400
C1068       C  0.14124076  0.77164528  0.21640072    -0.08100
C1069       C  0.16936752  0.77857395  0.23995741    -0.02700
C1070       C  0.16103999  0.80280417  0.25597305     0.04100
N1071       N  0.18948961  0.81109771  0.27986128     0.66600
H1072       H  0.12158969  0.83920724  0.25885181     0.15500
H1073       H  0.14727497  0.75304963  0.20416064     0.15200
N1074       N  0.08014039  0.78170545  0.18244913     0.74300
O1075       O  0.17662166  0.80813469  0.30618682    -0.39100
O1076       O  0.22009581  0.82783144  0.27488839    -0.39100
O1077       O  0.09713982  0.78075976  0.15696337    -0.39800
O1078       O  0.04230624  0.77157026  0.18666104    -0.39800
C1079       C  0.38679349  0.80125658  0.19980231    -0.12100
C1080       C  0.39298110  0.82266944  0.21984790     0.04900
C1081       C  0.36684443  0.82396914  0.24555781    -0.07400
C1082       C  0.33548076  0.80367343  0.25083138    -0.08100
C1083       C  0.33024278  0.78153337  0.23151986    -0.02700
C1084       C  0.35568998  0.78072440  0.20524674     0.04100
N1085       N  0.34931429  0.76026909  0.18317504     0.66600
H1086       H  0.40591281  0.80068168  0.17950720     0.15500
H1087       H  0.31409930  0.80548145  0.26999916     0.15200
N1088       N  0.37009571  0.84635057  0.26573599     0.74300
O1089       O  0.36751627  0.73731825  0.18672762    -0.39100
O1090       O  0.33842431  0.76751577  0.15728141    -0.39100
O1091       O  0.33526876  0.85831814  0.27439252    -0.39800
O1092       O  0.40663335  0.85142373  0.27830833    -0.39800
C1093       C  0.39241788  0.96579916  0.19740593    -0.12100
C1094       C  0.40340360  0.94480037  0.21764917     0.04900
C1095       C  0.38383007  0.94559049  0.24615707    -0.07400
C1096       C  0.34983791  0.96444322  0.25203546    -0.08100
C1097       C  0.33610817  0.98354462  0.23074369    -0.02700
C1098       C  0.35980978  0.98547730  0.20412026     0.04100
N1099       N  0.35226688  0.50712936  0.18422070     0.66600
H1100       H  0.40836553  0.96657195  0.17595514     0.15500
H1101       H  0.33214436  0.96317649  0.27285720     0.15200
N1102       N  0.39625454  0.92670886  0.26896029     0.74300
O1103       O  0.36853442  0.53018629  0.18973340    -0.39100
O1104       O  0.33389827  0.50287037  0.15948939    -0.39100
O1105       O  0.43491079  0.92759520  0.27984265    -0.39800
O1106       O  0.36658859  0.91370588  0.28249942    -0.39800
C1107       C  0.14184224  0.92590478  0.23959154    -0.12100
C1108       C  0.10643705  0.93263401  0.22072954     0.04900
C1109       C  0.10443579  0.95862370  0.20759244    -0.07400
C1110       C  0.13811785  0.97748722  0.21343946    -0.08100
C1111       C  0.17375101  0.97079840  0.23233074    -0.02700
C1112       C  0.17515644  0.94480808  0.24574309     0.04100
N1113       N  0.21048076  0.93724509  0.26548619     0.66600
H1114       H  0.14383338  0.90576687  0.24936618     0.15500
H1115       H  0.13676132  0.99716235  0.20275321     0.15200
N1116       N  0.06975859  0.96548914  0.18702414     0.74300
O1117       O  0.20746251  0.94306935  0.29259213    -0.39100
O1118       O  0.23843279  0.91949826  0.25756210    -0.39100
O1119       O  0.02977975  0.96591513  0.19529220    -0.39800
O1120       O  0.07902065  0.97081961  0.16041012    -0.39800
C1121       C  0.11877865  0.67347979  0.49477734    -0.12100
C1122       C  0.14481169  0.68154492  0.47079315     0.04900
C1123       C  0.13887073  0.70791561  0.45901278    -0.07400
C1124       C  0.10801992  0.72518057  0.96936460    -0.08100
C1125       C  0.07784983  0.71637590  0.49319607    -0.02700
C1126       C  0.08511556  0.69025596  0.50616977     0.04100
N1127       N  0.05858118  0.67996031  0.53026472     0.66600
H1128       H  0.12375282  0.65335437  0.50408401     0.15500
H1129       H  0.10239646  0.74483114  0.95903151     0.15200
N1130       N  0.16799526  0.71724594  0.93430717     0.74300
O1131       O  0.06019950  0.65504079  0.53714100    -0.39100
O1132       O  0.03412240  0.69550115  0.54534230    -0.39100
O1133       O  0.15743913  0.71149869  0.90795719    -0.39800
O1134       O  0.19612988  0.73563441  0.93913882    -0.39800
C1135       C  0.39717237  0.70174404  0.01111125    -0.12100
C1136       C  0.41223534  0.71939443  0.48775969     0.04900
C1137       C  0.39591228  0.71776971  0.45835243    -0.07400
C1138       C  0.36547911  0.69735333  0.45112639    -0.08100
C1139       C  0.34785710  0.68035761  0.47296649    -0.02700
C1140       C  0.36401292  0.68309173  0.00376347     0.04100
N1141       N  0.34747774  0.66523295  0.02607097     0.66600
H1142       H  0.41164417  0.70089067  0.03302063     0.15500
H1143       H  0.35565129  0.69457024  0.42823894     0.15200
N1144       N  0.41016127  0.73606297  0.43559581     0.74300
O1145       O  0.36649465  0.64265287  0.03071570    -0.39100
O1146       O  0.31840637  0.67370385  0.04394038    -0.39100
O1147       O  0.40363555  0.76124039  0.43881513    -0.39800
O1148       O  0.41748928  0.72708820  0.40986868    -0.39800
C1149       C  0.15174071  0.78822630  0.03871700    -0.12100
C1150       C  0.14422409  0.81487995  0.02835431     0.04900
C1151       C  0.10504865  0.82025153  0.01198833    -0.07400
C1152       C  0.07282538  0.79979185  0.00886479    -0.08100
C1153       C  0.07838942  0.77362165  0.02117858    -0.02700
C1154       C  0.11967226  0.76750674  0.03514105     0.04100
N1155       N  0.12974455  0.74086339  0.04628650     0.66600
H1156       H  0.18206171  0.78375492  0.05086976     0.15500
H1157       H  0.04275044  0.80432348  0.99647648     0.15200
N1158       N  0.09815455  0.84600096  0.99751445     0.74300
O1159       O  0.16780353  0.73061054  0.04224204    -0.39100
O1160       O  0.10330835  0.72922408  0.06363615    -0.39100
O1161       O  0.13260507  0.85242289  0.47930563    -0.39800
O1162       O  0.05933754  0.85545168  0.99420758    -0.39800
C1163       C  0.40581268  0.78913340  0.00398836    -0.12100
C1164       C  0.41615422  0.76912306  0.02516286     0.04900
C1165       C  0.39181906  0.76862760  0.05187233    -0.07400
C1166       C  0.35907748  0.78845809  0.05690312    -0.08100
C1167       C  0.34991639  0.80906621  0.03607717    -0.02700
C1168       C  0.37277816  0.80870449  0.00888306     0.04100
N1169       N  0.36585137  0.82936828  0.98703576     0.66600
H1170       H  0.42630179  0.79106612  0.98449789     0.15500
H1171       H  0.34107819  0.78943462  0.57812688     0.15200
N1172       N  0.39972422  0.75019148  0.57443894     0.74300
O1173       O  0.39162281  0.84947621  0.98623571    -0.39100
O1174       O  0.34081772  0.82466267  0.96515574    -0.39100
O1175       O  0.41351725  0.75960540  0.59877889    -0.39800
O1176       O  0.38144961  0.72719472  0.57453262    -0.39800
C1177       C  0.00324371  0.79388157  0.10798055    -0.12100
C1178       C  0.98817233  0.82031051  0.10238404     0.04900
C1179       C  0.47889223  0.82949224  0.07244908    -0.07400
C1180       C  0.48473309  0.81048460  0.04968920    -0.08100
C1181       C  0.99703968  0.78293182  0.05559687    -0.02700
C1182       C  0.00712150  0.77488758  0.08501994     0.04100
N1183       N  0.01921520  0.74739572  0.09228469     0.66600
H1184       H  0.01142612  0.78791680  0.13047639     0.15500
H1185       H  0.47812722  0.81654741  0.02701527     0.15200
N1186       N  0.46356703  0.85644218  0.06533727     0.74300
O1187       O  0.04791181  0.74284267  0.11221216    -0.39100
O1188       O  0.99500100  0.72810434  0.08364949    -0.39100
O1189       O  0.47821947  0.86849360  0.04273093    -0.39800
O1190       O  0.43056275  0.86638990  0.07876036    -0.39800
C1191       C  0.11912526  0.70669929  0.30465292    -0.12100
C1192       C  0.11195813  0.68466933  0.28541590     0.04900
C1193       C  0.13442468  0.68421607  0.25806375    -0.07400
C1194       C  0.16487120  0.70471403  0.25132991    -0.08100
C1195       C  0.17503850  0.72527343  0.27176775    -0.02700
C1196       C  0.14980712  0.72709505  0.29795382     0.04100
N1197       N  0.15101190  0.75060532  0.31641817     0.66600
H1198       H  0.10035273  0.70833204  0.32501258     0.15500
H1199       H  0.18271813  0.70370263  0.23055184     0.15200
N1200       N  0.12982939  0.66192414  0.23803254     0.74300
O1201       O  0.11950044  0.76753548  0.31396247    -0.39100
O1202       O  0.17159958  0.74927768  0.34076072    -0.39100
O1203       O  0.11256767  0.66578145  0.21283289    -0.39800
O1204       O  0.15073242  0.64007198  0.24314293    -0.39800
C1205       C  0.39635174  0.71126913  0.29938612    -0.12100
C1206       C  0.40797012  0.69115892  0.27878895     0.04900
C1207       C  0.38838430  0.69148376  0.25051126    -0.07400
C1208       C  0.35344216  0.70961378  0.24456625    -0.08100
C1209       C  0.34017837  0.72914076  0.26550019    -0.02700
C1210       C  0.36393111  0.73101378  0.29254947     0.04100
N1211       N  0.35575636  0.75262157  0.31314351     0.66600
H1212       H  0.41253353  0.71153449  0.32089453     0.15500
H1213       H  0.33456626  0.70722511  0.22427105     0.15200
N1214       N  0.40144409  0.67219857  0.22846274     0.74300
O1215       O  0.35334220  0.74740958  0.34047530    -0.39100
O1216       O  0.36298916  0.77678476  0.30522808    -0.39100
O1217       O  0.38340758  0.64913369  0.22735053    -0.39800
O1218       O  0.43274673  0.67772747  0.21102758    -0.39800
C1219       C  0.35916681  0.58086421  0.26047285    -0.12100
C1220       C  0.39306402  0.57214392  0.27968716     0.04900
C1221       C  0.39379512  0.54488200  0.28945766    -0.07400
C1222       C  0.36009758  0.52705528  0.28058243    -0.08100
C1223       C  0.32576543  0.53585825  0.26169982    -0.02700
C1224       C  0.32569930  0.56302451  0.25129166     0.04100
N1225       N  0.29156513  0.57283306  0.23166605     0.66600
H1226       H  0.35821211  0.60180776  0.25300096     0.15500
H1227       H  0.36152089  0.00764919  0.28869669     0.15200
N1228       N  0.42908014  0.53492552  0.30790747     0.74300
O1229       O  0.27234962  0.59524495  0.23679629    -0.39100
O1230       O  0.28460959  0.56093863  0.20733333    -0.39100
O1231       O  0.42052949  0.52467967  0.33286175    -0.39800
O1232       O  0.46801451  0.53332102  0.29778790    -0.39800
C1233       C  0.14532813  0.54183679  0.24151571    -0.12100
C1234       C  0.16242376  0.52390669  0.26305611     0.04900
C1235       C  0.14345091  0.52425216  0.29165886    -0.07400
C1236       C  0.11211187  0.54443273  0.29898763    -0.08100
C1237       C  0.09714139  0.56337961  0.27787758    -0.02700
C1238       C  0.11227512  0.56108596  0.24842804     0.04100
N1239       N  0.09706915  0.57941542  0.22584532     0.66600
H1240       H  0.15978469  0.54202529  0.21956767     0.15500
H1241       H  0.09972705  0.54556130  0.32147467     0.15200
N1242       N  0.15624509  0.50471710  0.31361590     0.74300
O1243       O  0.12490234  0.59281188  0.21107867    -0.39100
O1244       O  0.05765066  0.57771826  0.21645137    -0.39100
O1245       O  0.16659220  0.51260964  0.33933261    -0.39800
O1246       O  0.14557298  0.48021037  0.30980562    -0.39800
C1247       C  0.01286888  0.71897567  0.43347404    -0.12100
C1248       C  0.99727731  0.70611485  0.45933062     0.04900
C1249       C  0.48051965  0.67905441  0.45583840    -0.07400
C1250       C  0.48000718  0.66645188  0.42786208    -0.08100
C1251       C  0.99576027  0.67935507  0.40375161    -0.02700
C1252       C  0.01196817  0.70596042  0.40582143     0.04100
N1253       N  0.02579065  0.72035631  0.37991315     0.66600
H1254       H  0.02428640  0.73981841  0.43463216     0.15500
H1255       H  0.46681714  0.64609431  0.42560332     0.15200
N1256       N  0.46298959  0.66421844  0.48074083     0.74300
O1257       O  0.99821088  0.72508380  0.35935520    -0.39100
O1258       O  0.06338373  0.73151689  0.37930118    -0.39100
O1259       O  0.43886758  0.64362557  0.47659431    -0.39800
O1260       O  0.47321150  0.67044342  0.50692971    -0.39800
C1261       C  0.36926667  0.56072237  0.49166628    -0.12100
C1262       C  0.34854546  0.55849578  0.46399100     0.04900
C1263       C  0.35898295  0.53586530  0.44586318    -0.07400
C1264       C  0.39165954  0.51707898  0.45494819    -0.08100
C1265       C  0.41519460  0.52097166  0.48140451    -0.02700
C1266       C  0.40732820  0.54333599  0.99891824     0.04100
N1267       N  0.43309861  0.54939530  0.02460179     0.66600
H1268       H  0.36805754  0.57922884  0.00479290     0.15500
H1269       H  0.40025176  0.50024360  0.44060571     0.15200
N1270       N  0.33758804  0.53199063  0.41792246     0.74300
O1271       O  0.41604353  0.54543239  0.04968570    -0.39100
O1272       O  0.46275357  0.06756694  0.02306052    -0.39100
O1273       O  0.35786993  0.53796778  0.39441939    -0.39800
O1274       O  0.30298861  0.51770952  0.41654138    -0.39800
C1275       C  0.13019353  0.56279770  0.49306712    -0.12100
C1276       C  0.14533927  0.56353596  0.46389552     0.04900
C1277       C  0.12840111  0.54490594  0.44307931    -0.07400
C1278       C  0.09552951  0.52638869  0.45156902    -0.08100
C1279       C  0.07835567  0.52666584  0.48048001    -0.02700
C1280       C  0.09633669  0.54470877  0.00005972     0.04100
N1281       N  0.07538938  0.54807327  0.02815535     0.66600
H1282       H  0.14058348  0.57788205  0.00870054     0.15500
H1283       H  0.08193437  0.51261981  0.43521090     0.15200
N1284       N  0.14431158  0.54461543  0.41331325     0.74300
O1285       O  0.09436335  0.53830366  0.05077241    -0.39100
O1286       O  0.04981948  0.56824252  0.03155436    -0.39100
O1287       O  0.17710014  0.52974568  0.40664100    -0.39800
O1288       O  0.12221852  0.55626986  0.39307970    -0.39800
C1289       C  0.00647245  0.56395058  0.45473383    -0.12100
C1290       C  0.99372997  0.53686494  0.45068826     0.04900
C1291       C  0.48908097  0.52622203  0.42027228    -0.07400
C1292       C  0.49182113  0.54418236  0.39621487    -0.08100
C1293       C  0.00343198  0.57165028  0.40162509    -0.02700
C1294       C  0.01408189  0.58100748  0.43042247     0.04100
N1295       N  0.03597125  0.60658793  0.43516876     0.66600
H1296       H  0.01440536  0.57098791  0.47683635     0.15500
H1297       H  0.48573659  0.53678580  0.37396336     0.15200
N1298       N  0.48251108  0.49783633  0.41456056     0.74300
O1299       O  0.03353016  0.61819741  0.46006794    -0.39100
O1300       O  0.06509355  0.61445708  0.41714143    -0.39100
O1301       O  0.45401104  0.49047656  0.39564410    -0.39800
O1302       O  0.51096550  0.48076045  0.42358360    -0.39800
C1303       C  0.38883420  0.97434407  0.03161722    -0.12100
C1304       C  0.42335666  0.96642379  0.01258153     0.04900
C1305       C  0.42325057  0.93968887  0.00096216    -0.07400
C1306       C  0.39039466  0.92122772  0.00943213    -0.08100
C1307       C  0.35649107  0.92890312  0.02878942    -0.02700
C1308       C  0.35552362  0.95579637  0.03978080     0.04100
N1309       N  0.32237796  0.96406053  0.06050467     0.66600
H1310       H  0.38643285  0.49437220  0.03806639     0.15500
H1311       H  0.39125038  0.90073224  0.00070746     0.15200
N1312       N  0.45609358  0.93110808  0.98011160     0.74300
O1313       O  0.32900974  0.96043033  0.08785725    -0.39100
O1314       O  0.29044498  0.97894161  0.05202327    -0.39100
O1315       O  0.47743648  0.90923767  0.98436541    -0.38200
O1316       O  0.45755513  0.94244327  0.95505674    -0.39800
C1317       C  0.14008426  0.93880440  0.00076051    -0.12100
C1318       C  0.15483512  0.93837911  0.03025555     0.04900
C1319       C  0.14012874  0.95924545  0.04963666    -0.07400
C1320       C  0.10656026  0.97716585  0.04065862    -0.08100
C1321       C  0.08784066  0.97508234  0.01244460    -0.02700
C1322       C  0.10695028  0.95708029  0.99166393     0.04100
N1323       N  0.08975991  0.95493641  0.96222235     0.66600
H1324       H  0.15173190  0.92359930  0.98519324     0.15500
H1325       H  0.08890726  0.48926727  0.05606297     0.15200
N1326       N  0.15816488  0.96242348  0.07868064     0.74300
O1327       O  0.04874436  0.94314697  0.45918603    -0.39100
O1328       O  0.11487544  0.95977134  0.94057664    -0.39100
O1329       O  0.18554093  0.98132963  0.08309355    -0.39800
O1330       O  0.13785243  0.95235023  0.10044580    -0.39800
C1331       C  0.03054504  0.93497358  0.04622815    -0.12100
C1332       C  0.00781979  0.96003318  0.04617373     0.04900
C1333       C  0.49092649  0.97137361  0.07369898    -0.07400
C1334       C  0.49404952  0.95579818  0.09955155    -0.08100
C1335       C  0.01717855  0.92968072  0.09897659    -0.02700
C1336       C  0.03801489  0.92049091  0.07273502     0.04100
N1337       N  0.06696798  0.89698316  0.07259821     0.66600
H1338       H  0.04447378  0.92742884  0.02574339     0.15500
H1339       H  0.47955092  0.96336542  0.11992089     0.15200
N1340       N  0.47391553  0.99862415  0.07560949     0.74300
O1341       O  0.07574255  0.88510615  0.04853368    -0.39100
O1342       O  0.08970977  0.89090820  0.09524842    -0.39100
O1343       O  0.44148777  0.00383405  0.09236017    -0.39800
O1344       O  0.49675715  0.01802682  0.06573251    -0.39800
C1345       C  0.00105799  0.97712920  0.51887277     0.02400
C1346       C  0.04075346  0.98819918  0.50726509     0.02400
C1347       C  0.04036032  0.50896932  0.98491520     0.02400
C1348       C  0.49933863  0.51675517  0.97404027     0.02400
C1349       C  0.45955189  0.50560743  0.98527425     0.02400
C1350       C  0.45900960  0.98515676  0.50521238     0.02400
O1351       O  0.46790562  0.66219174  0.85824272    -0.85200
O1352       O  0.41950573  0.65076584  0.80781791    -0.82200
C1353       C  0.43446813  0.66684195  0.78843650     0.98300
O1354       O  0.47204280  0.66295854  0.77701308    -0.82300
O1355       O  0.05979728  0.64730803  0.77289571    -0.84900
C1356       C  0.07825460  0.66316611  0.79129336     1.02800
O1357       O  0.07289496  0.65962611  0.81865153    -0.77700
O1358       O  0.03378628  0.64746882  0.87131262    -0.77900
C1359       C  0.00099337  0.66336367  0.87480004     1.02700
O1360       O  0.47366047  0.60581103  0.87215074    -0.85200
O1361       O  0.43215953  0.59332924  0.81934360    -0.82300
C1362       C  0.42518080  0.59114778  0.79189237     0.98300
O1363       O  0.44366829  0.60718392  0.77380686    -0.82300
O1364       O  0.03227763  0.59085021  0.77532445    -0.84900
C1365       C  0.06974162  0.58632057  0.78694929     1.02800
O1366       O  0.08539062  0.60240742  0.80615540    -0.77700
O1367       O  0.03881371  0.59079176  0.85645459    -0.77900
C1368       C  0.00700559  0.59016547  0.87440933     1.02700
Cr1369     Cr  0.45209274  0.62785280  0.83760352     1.93700
Cr1370     Cr  0.00214334  0.62687899  0.77764456     1.93200
Cr1371     Cr  0.05403072  0.62524267  0.83646268     1.39100
O1372       O  0.00298316  0.62673267  0.81711129    -1.22900
C1373       C  0.49925684  0.72275482  0.98691044     0.02400
C1374       C  0.45808092  0.73287446  0.99772954     0.02400
C1375       C  0.45364573  0.75339962  0.51839483     0.02400
C1376       C  0.99608968  0.76366654  0.53139802     0.02400
C1377       C  0.03725521  0.75451979  0.51965662     0.02400
C1378       C  0.03913205  0.73244742  0.99834812     0.02400
O1379       O  0.03984657  0.90939808  0.64308907    -0.85200
O1380       O  0.08497633  0.89433712  0.69401697    -0.82200
C1381       C  0.07242252  0.91199942  0.71260644     0.98300
O1382       O  0.03403023  0.91135448  0.72348535    -0.82300
O1383       O  0.44461656  0.90328890  0.72460034    -0.84900
C1384       C  0.42927376  0.92069339  0.70635092     1.02800
O1385       O  0.43502947  0.91710710  0.67899262    -0.77700
O1386       O  0.47086848  0.89892856  0.62659893    -0.77900
C1387       C  0.00796146  0.91232476  0.62514386     1.02700
O1388       O  0.02324643  0.85393907  0.62963910    -0.85200
O1389       O  0.06162372  0.83853746  0.68237010    -0.82300
C1390       C  0.06877097  0.83630093  0.70977722     0.98300
O1391       O  0.05202281  0.85357432  0.72752176    -0.82300
O1392       O  0.46084405  0.84500730  0.72309623    -0.84900
C1393       C  0.42249132  0.84402268  0.71187728     1.02800
O1394       O  0.40974516  0.86176312  0.69330783    -0.77700
O1395       O  0.45305892  0.84443442  0.64349130    -0.77900
C1396       C  0.98782848  0.84058221  0.62701789     1.02700
Cr1397     Cr  0.04857792  0.87427628  0.66391202     1.93700
Cr1398     Cr  0.99785162  0.87796982  0.72250525     1.93200
Cr1399     Cr  0.44600130  0.88044027  0.66223858     1.39100
O1400       O  0.99786783  0.87745584  0.68324398    -1.22900
C1401       C  0.24496083  0.52182853  0.77070427     0.02400
C1402       C  0.20596523  0.50914089  0.76012374     0.02400
C1403       C  0.20944824  0.98958522  0.73754329     0.02400
C1404       C  0.25132271  0.98314789  0.72491237     0.02400
C1405       C  0.29035708  0.99591376  0.73581241     0.02400
C1406       C  0.28686268  0.51567279  0.75831632     0.02400
O1407       O  0.27189735  0.85306794  0.62283940    -0.85200
O1408       O  0.31177993  0.83645770  0.57140179    -0.82200
C1409       C  0.31762816  0.83222623  0.54418962     0.98300
O1410       O  0.30126608  0.84843864  0.52510905    -0.82300
O1411       O  0.21147985  0.83861549  0.52690184    -0.84900
C1412       C  0.17302892  0.83694629  0.53771845     1.02800
O1413       O  0.15986618  0.85464210  0.55619708    -0.77700
O1414       O  0.20660764  0.84013712  0.60655816    -0.77900
C1415       C  0.23761199  0.83852400  0.62524407     1.02700
O1416       O  0.28637069  0.90817821  0.60600667    -0.85200
O1417       O  0.33399298  0.89213012  0.55751355    -0.82300
C1418       C  0.32153659  0.90877176  0.53768900     0.98300
O1419       O  0.28373334  0.90651500  0.52573584    -0.82300
O1420       O  0.19367867  0.89726770  0.52345121    -0.84900
C1421       C  0.17779548  0.91440077  0.54171788     1.02800
O1422       O  0.18250766  0.91070718  0.56902036    -0.77700
O1423       O  0.22018203  0.89653977  0.62121145    -0.77900
C1424       C  0.25472744  0.91089858  0.62381857     1.02700
Cr1425     Cr  0.29729664  0.87243312  0.58769633     1.93700
Cr1426     Cr  0.24739672  0.87276075  0.52814554     1.93200
Cr1427     Cr  0.19602906  0.87532692  0.58660565     1.39100
O1428       O  0.24697332  0.87354973  0.56739844    -1.22900
C1429       C  0.25625866  0.73140287  0.77250296     0.02400
C1430       C  0.29557242  0.74195836  0.75957458     0.02400
C1431       C  0.29208312  0.76181792  0.73701127     0.02400
C1432       C  0.24961167  0.77023740  0.72726974     0.02400
C1433       C  0.21106282  0.76246967  0.74262323     0.02400
C1434       C  0.21379270  0.74149241  0.76377646     0.02400
O1435       O  0.21287688  0.59181918  0.89075484    -0.85200
O1436       O  0.16509935  0.60395891  0.93950812    -0.82200
C1437       C  0.17866176  0.58510341  0.95642202     0.98300
O1438       O  0.21668159  0.58622173  0.96809853    -0.82300
O1439       O  0.30543558  0.59750598  0.97330602    -0.84900
C1440       C  0.32236513  0.58171761  0.95420847     1.02800
O1441       O  0.31758511  0.58665390  0.92704518    -0.77700
O1442       O  0.27899916  0.60437132  0.87597140    -0.77900
C1443       C  0.24496433  0.58969818  0.87329705     1.02700
O1444       O  0.22553303  0.64800517  0.87768896    -0.85200
O1445       O  0.18589995  0.66082409  0.93082026    -0.82300
C1446       C  0.17877309  0.66149833  0.95825714     0.98300
O1447       O  0.19529672  0.64334354  0.97511924    -0.82300
O1448       O  0.28461658  0.65462199  0.97527986    -0.84900
C1449       C  0.32240992  0.65795416  0.96399740     1.02800
O1450       O  0.33644267  0.64239454  0.94370240    -0.77700
O1451       O  0.29125454  0.65972199  0.89410043    -0.77900
C1452       C  0.25970238  0.66270073  0.87593515     1.02700
Cr1453     Cr  0.20104814  0.62615187  0.91125313     1.93700
Cr1454     Cr  0.25055268  0.62064961  0.97016383     1.93200
Cr1455     Cr  0.30242384  0.62330674  0.91183868     1.39100
O1456       O  0.25148131  0.62359918  0.93111326    -1.22900
C1457       C  0.26401483  0.72499200  0.82646873    -0.12100
C1458       C  0.25982841  0.71298234  0.79846756     0.04900
C1459       C  0.25870190  0.68440907  0.79617890    -0.07400
C1460       C  0.26046371  0.66859840  0.82193838    -0.08100
C1461       C  0.26399793  0.68064496  0.85001941    -0.02700
C1462       C  0.26669866  0.70917787  0.85227585     0.04100
N1463       N  0.27085393  0.72246186  0.88036316     0.66600
H1464       H  0.26492834  0.74698505  0.82822734     0.15500
H1465       H  0.25863561  0.64664338  0.82003898     0.15200
N1466       N  0.25481269  0.67103099  0.76820347     0.74300
O1467       O  0.30430617  0.71753841  0.89641639    -0.39100
O1468       O  0.24725393  0.74313660  0.88595041    -0.39100
O1469       O  0.28960636  0.66258640  0.75572959    -0.39800
O1470       O  0.21857071  0.65981985  0.76166910    -0.39800
C1471       C  0.23186227  0.79290140  0.64787245    -0.12100
C1472       C  0.23343721  0.82115813  0.65135375     0.04900
C1473       C  0.23627551  0.83256945  0.68001604    -0.07400
C1474       C  0.24523047  0.81548901  0.70401159    -0.08100
C1475       C  0.24523665  0.78732477  0.70058512    -0.02700
C1476       C  0.23646591  0.77578637  0.67251367     0.04100
N1477       N  0.23172745  0.74697486  0.66875617     0.66600
H1478       H  0.22827259  0.78415282  0.62595152     0.15500
H1479       H  0.25000259  0.82403250  0.72580442     0.15200
N1480       N  0.22562568  0.86072471  0.68538727     0.74300
O1481       O  0.26261806  0.73091912  0.67634694    -0.39100
O1482       O  0.19820141  0.73770593  0.65535997    -0.39100
O1483       O  0.19448141  0.87180348  0.67086521    -0.39800
O1484       O  0.23826609  0.87196595  0.70908995    -0.39800
C1485       C  0.27791379  0.94045320  0.69959420    -0.12100
C1486       C  0.25341543  0.96485560  0.69840231     0.04900
C1487       C  0.23145601  0.97190730  0.67159095    -0.07400
C1488       C  0.23260587  0.95367806  0.64779895    -0.08100
C1489       C  0.25822458  0.92995318  0.64877015    -0.02700
C1490       C  0.28304531  0.92372524  0.67464485     0.04100
N1491       N  0.31340621  0.90089003  0.67612737     0.66600
H1492       H  0.29451022  0.93469690  0.71996389     0.15500
H1493       H  0.21427927  0.95848289  0.62756667     0.15200
N1494       N  0.20908713  0.99764306  0.66783354     0.74300
O1495       O  0.33482455  0.89355397  0.65350830    -0.39100
O1496       O  0.32470362  0.89110800  0.70095505    -0.39100
O1497       O  0.22670369  0.01922751  0.67722202    -0.39800
O1498       O  0.17502040  0.99937865  0.65148302    -0.39800
C1499       C  0.26489941  0.54714296  0.84853321    -0.12100
C1500       C  0.24144266  0.57165910  0.84807245     0.04900
C1501       C  0.21740855  0.57969718  0.82273611    -0.07400
C1502       C  0.22108335  0.56412677  0.79699106    -0.08100
C1503       C  0.24332498  0.53895509  0.79758747    -0.02700
C1504       C  0.26417255  0.52996071  0.82401215     0.04100
N1505       N  0.28274878  0.50308258  0.82667959     0.66600
H1506       H  0.28204792  0.54092676  0.86836854     0.15500
H1507       H  0.20485118  0.57101646  0.77690766     0.15200
N1508       N  0.18843979  0.60303325  0.82321736     0.74300
O1509       O  0.31461559  0.99919814  0.83976202    -0.39100
O1510       O  0.25508119  0.98386809  0.81818333    -0.39100
O1511       O  0.18522700  0.61827653  0.80080229    -0.39800
O1512       O  0.16077565  0.60581792  0.84394941    -0.39800
C1513       C  0.12745169  0.82077376  0.74526661    -0.12100
C1514       C  0.10014107  0.81491849  0.72081263     0.04900
C1515       C  0.10680109  0.79002036  0.70565284    -0.07400
C1516       C  0.14071391  0.77200955  0.71464987    -0.08100
C1517       C  0.16920193  0.77850869  0.73820342    -0.02700
C1518       C  0.16216577  0.80316346  0.75378976     0.04100
N1519       N  0.19228607  0.81181870  0.77656702     0.66600
H1520       H  0.12356742  0.83996030  0.75683410     0.15500
H1521       H  0.14624067  0.75345835  0.70222840     0.15200
N1522       N  0.08028009  0.78304536  0.68050325     0.74300
O1523       O  0.19005417  0.80145699  0.80205346    -0.39100
O1524       O  0.21349263  0.83366147  0.77333922    -0.39100
O1525       O  0.09671160  0.78446560  0.65487981    -0.39800
O1526       O  0.04379015  0.77108486  0.68421813    -0.39800
C1527       C  0.38488941  0.80120907  0.69875105    -0.12100
C1528       C  0.39226321  0.82177633  0.71966942     0.04900
C1529       C  0.36782415  0.82188630  0.74615123    -0.07400
C1530       C  0.33646800  0.80150575  0.75106970    -0.08100
C1531       C  0.33016810  0.78017108  0.73087239    -0.02700
C1532       C  0.35432607  0.78032024  0.70404481     0.04100
N1533       N  0.34752919  0.76023916  0.68156707     0.66600
H1534       H  0.40297906  0.80145927  0.67803653     0.15500
H1535       H  0.31612981  0.80249949  0.77081118     0.15200
N1536       N  0.37298152  0.84305786  0.76766421     0.74300
O1537       O  0.35792969  0.73581053  0.68675707    -0.39100
O1538       O  0.34187763  0.76767508  0.65501895    -0.39100
O1539       O  0.33905288  0.85415707  0.77885428    -0.39800
O1540       O  0.41064223  0.84744168  0.77901165    -0.39800
C1541       C  0.38907913  0.96481942  0.69627142    -0.12100
C1542       C  0.40136442  0.94415884  0.71656866     0.04900
C1543       C  0.38312524  0.94512731  0.74540576    -0.07400
C1544       C  0.34922786  0.96381951  0.75185399    -0.08100
C1545       C  0.33438537  0.98275552  0.73070948    -0.02700
C1546       C  0.35667547  0.98446569  0.70349308     0.04100
N1547       N  0.34639107  0.50400413  0.68509244     0.66600
H1548       H  0.40393964  0.96540902  0.67446583     0.15500
H1549       H  0.33244998  0.96246424  0.77300426     0.15200
N1550       N  0.39673530  0.92641630  0.76799285     0.74300
O1551       O  0.35649985  0.52832382  0.69083233    -0.39100
O1552       O  0.33134834  0.49802104  0.65980074    -0.39100
O1553       O  0.43311925  0.93009142  0.78134751    -0.39800
O1554       O  0.36896389  0.91001728  0.77860177    -0.39800
C1555       C  0.13821053  0.92644265  0.74122685    -0.12100
C1556       C  0.10362111  0.93317205  0.72170189     0.04900
C1557       C  0.10190234  0.95918999  0.70868133    -0.07400
C1558       C  0.13612082  0.97771110  0.71426007    -0.08100
C1559       C  0.17165007  0.97072383  0.73309903    -0.02700
C1560       C  0.17174462  0.94516472  0.74744544     0.04100
N1561       N  0.20536624  0.93811304  0.76869017     0.66600
H1562       H  0.13943669  0.90645780  0.75140849     0.15500
H1563       H  0.13506763  0.99743009  0.70364910     0.15200
N1564       N  0.06640480  0.96659497  0.68898567     0.74300
O1565       O  0.19621533  0.93873644  0.79591711    -0.39100
O1566       O  0.23952184  0.92530390  0.76042166    -0.39100
O1567       O  0.02702882  0.96790471  0.69837385    -0.39800
O1568       O  0.07433533  0.97184542  0.66216096    -0.39800
C1569       C  0.12179727  0.67404691  0.99483632    -0.12100
C1570       C  0.14746470  0.68178844  0.97056877     0.04900
C1571       C  0.14106756  0.70788480  0.95813433    -0.07400
C1572       C  0.10590281  0.72516876  0.47047560    -0.08100
C1573       C  0.08022238  0.71661533  0.99230838    -0.02700
C1574       C  0.08793684  0.69081128  0.00589304     0.04100
N1575       N  0.06172927  0.68083869  0.03031532     0.66600
H1576       H  0.12714964  0.65414077  0.00460334     0.15500
H1577       H  0.10066734  0.74503810  0.46056211     0.15200
N1578       N  0.16640189  0.71762824  0.43570513     0.74300
O1579       O  0.06422376  0.65614893  0.03802973    -0.39100
O1580       O  0.03657237  0.69644044  0.04479189    -0.39100
O1581       O  0.15425786  0.71469173  0.40910280    -0.39800
O1582       O  0.19778771  0.73357355  0.44179990    -0.39800
C1583       C  0.39245662  0.70329472  0.50972227    -0.12100
C1584       C  0.41579816  0.71892100  0.98965936     0.04900
C1585       C  0.39872717  0.71818588  0.96041561    -0.07400
C1586       C  0.36838417  0.69787150  0.95270514    -0.08100
C1587       C  0.35113590  0.68020637  0.97400942    -0.02700
C1588       C  0.35962720  0.68437915  0.50274063     0.04100
N1589       N  0.34250869  0.66729783  0.52557617     0.66600
H1590       H  0.40610145  0.70326430  0.53185551     0.15500
H1591       H  0.35829807  0.69567183  0.92984435     0.15200
N1592       N  0.41203010  0.73740343  0.93831255     0.74300
O1593       O  0.35948976  0.64408342  0.52997912    -0.39100
O1594       O  0.31521591  0.67691029  0.54400864    -0.39100
O1595       O  0.40619371  0.76244119  0.94302993    -0.39800
O1596       O  0.41810869  0.72956173  0.91200563    -0.39800
C1597       C  0.14915188  0.78816756  0.54075408    -0.12100
C1598       C  0.14267184  0.81438156  0.52892316     0.04900
C1599       C  0.10488244  0.81923840  0.51108850    -0.07400
C1600       C  0.07216794  0.79905777  0.50839670    -0.08100
C1601       C  0.07668352  0.77334762  0.52198352    -0.02700
C1602       C  0.11717758  0.76743079  0.53704919     0.04100
N1603       N  0.12678396  0.74092808  0.54881465     0.66600
H1604       H  0.17868780  0.78403807  0.55387286     0.15500
H1605       H  0.04274843  0.80337148  0.49522516     0.15200
N1606       N  0.10034107  0.84401616  0.49446099     0.74300
O1607       O  0.16535704  0.73094707  0.54643438    -0.39100
O1608       O  0.09874745  0.72884410  0.56458749    -0.39100
O1609       O  0.12980896  0.85718622  0.98402591    -0.39800
O1610       O  0.06249477  0.85467894  0.49056329    -0.39800
C1611       C  0.39840956  0.78743391  0.50178831    -0.12100
C1612       C  0.41129372  0.76862687  0.52368188     0.04900
C1613       C  0.38880425  0.76883327  0.55110924    -0.07400
C1614       C  0.35668281  0.78893509  0.55654013    -0.08100
C1615       C  0.34605583  0.80890438  0.53525826    -0.02700
C1616       C  0.36580982  0.80718520  0.50704775     0.04100
N1617       N  0.35611459  0.82661200  0.48428148     0.66600
H1618       H  0.41719910  0.78871791  0.48153077     0.15500
H1619       H  0.34162578  0.78816573  0.07785027     0.15200
N1620       N  0.40107019  0.74938312  0.07490912     0.74300
O1621       O  0.37727502  0.84866976  0.48338013    -0.39100
O1622       O  0.33248213  0.81973340  0.46240326    -0.39100
O1623       O  0.41283298  0.75819064  0.09998854    -0.39800
O1624       O  0.38294737  0.72637282  0.07363520    -0.39800
C1625       C  0.00178232  0.79464296  0.60848946    -0.12100
C1626       C  0.98529495  0.82075249  0.60304490     0.04900
C1627       C  0.46368751  0.82659326  0.57445431    -0.07400
C1628       C  0.47309447  0.80925953  0.55057244    -0.08100
C1629       C  0.99546773  0.78363455  0.55617275    -0.02700
C1630       C  0.00595105  0.77568686  0.58556626     0.04100
N1631       N  0.01808627  0.74822151  0.59294329     0.66600
H1632       H  0.01042612  0.78880890  0.63094081     0.15500
H1633       H  0.46294297  0.81513814  0.52845844     0.15200
N1634       N  0.43604486  0.85038626  0.56982222     0.74300
O1635       O  0.04593081  0.74373233  0.61342158    -0.39100
O1636       O  0.99442882  0.72885257  0.58383251    -0.39100
O1637       O  0.42843939  0.85899637  0.54390194    -0.39800
O1638       O  0.41354912  0.86019458  0.59083713    -0.39800
C1639       C  0.11863542  0.70568252  0.80269067    -0.12100
C1640       C  0.10775776  0.68563012  0.78172226     0.04900
C1641       C  0.12731147  0.68704778  0.75336931    -0.07400
C1642       C  0.16031818  0.70641407  0.74790680    -0.08100
C1643       C  0.17349584  0.72502080  0.76979859    -0.02700
C1644       C  0.15039146  0.72553661  0.79685691     0.04100
N1645       N  0.15564066  0.74703603  0.81776075     0.66600
H1646       H  0.10224277  0.70609096  0.82401209     0.15500
H1647       H  0.17697812  0.70632618  0.72665714     0.15200
N1648       N  0.11570975  0.66843679  0.73030924     0.74300
O1649       O  0.12753772  0.76619569  0.81700264    -0.39100
O1650       O  0.17464267  0.74186743  0.84209392    -0.39100
O1651       O  0.07944364  0.67166072  0.71657644    -0.39800
O1652       O  0.14528439  0.65324004  0.71932484    -0.39800
C1653       C  0.39658630  0.71076683  0.79799621    -0.12100
C1654       C  0.40617764  0.68947944  0.77840260     0.04900
C1655       C  0.38459224  0.68846641  0.75081162    -0.07400
C1656       C  0.35023794  0.70693748  0.74458452    -0.08100
C1657       C  0.33874864  0.72758200  0.76469698    -0.02700
C1658       C  0.36421555  0.73044633  0.79094530     0.04100
N1659       N  0.35878231  0.75331612  0.81021930     0.66600
H1660       H  0.41434073  0.71205527  0.81890020     0.15500
H1661       H  0.33036980  0.70396928  0.72480389     0.15200
N1662       N  0.39503263  0.66756682  0.72989945     0.74300
O1663       O  0.35310002  0.74925867  0.83754624    -0.39100
O1664       O  0.37443388  0.77585627  0.80219163    -0.39100
O1665       O  0.37350928  0.64564767  0.72973668    -0.39800
O1666       O  0.42617857  0.67092673  0.71169350    -0.39800
C1667       C  0.35691182  0.57974612  0.76370918    -0.12100
C1668       C  0.39285775  0.57089707  0.78108109     0.04900
C1669       C  0.39543458  0.54334534  0.78966075    -0.07400
C1670       C  0.36133432  0.52542471  0.78165927    -0.08100
C1671       C  0.32509891  0.53423822  0.76435207    -0.02700
C1672       C  0.32335548  0.56174712  0.75495244     0.04100
N1673       N  0.28746566  0.57178442  0.73683809     0.66600
H1674       H  0.35454679  0.60092293  0.75729650     0.15500
H1675       H  0.36020571  0.00606849  0.78983953     0.15200
N1676       N  0.43306111  0.53316065  0.80580942     0.74300
O1677       O  0.27059557  0.59490886  0.74188533    -0.39100
O1678       O  0.27591985  0.55899962  0.71385015    -0.39100
O1679       O  0.42751474  0.51996581  0.82948522    -0.39800
O1680       O  0.47112395  0.53389856  0.79424639    -0.39800
C1681       C  0.14610277  0.54017390  0.74324885    -0.12100
C1682       C  0.16194481  0.52250814  0.76546220     0.04900
C1683       C  0.14176656  0.52334441  0.79366289    -0.07400
C1684       C  0.11030612  0.54378759  0.79994625    -0.08100
C1685       C  0.09665935  0.56244580  0.77810958    -0.02700
C1686       C  0.11309576  0.55961815  0.74914855     0.04100
N1687       N  0.10009545  0.57813972  0.72626974     0.66600
H1688       H  0.16178942  0.54020941  0.72168387     0.15500
H1689       H  0.09704674  0.54546642  0.82216564     0.15200
N1690       N  0.15413672  0.50441252  0.81636324     0.74300
O1691       O  0.12660357  0.59649833  0.71838232    -0.39100
O1692       O  0.06756250  0.57236552  0.70977077    -0.39100
O1693       O  0.16416113  0.51295669  0.84188559    -0.39800
O1694       O  0.14486868  0.47962176  0.81298751    -0.39800
C1695       C  0.01524257  0.71895492  0.93227646    -0.12100
C1696       C  0.99995517  0.70593698  0.95813810     0.04900
C1697       C  0.48454718  0.67848892  0.95706974    -0.07400
C1698       C  0.48351944  0.66571960  0.92911322    -0.08100
C1699       C  0.99830323  0.67938682  0.90234274    -0.02700
C1700       C  0.01444883  0.70599975  0.90456744     0.04100
N1701       N  0.02848957  0.72043856  0.87876866     0.66600
H1702       H  0.02646772  0.73983342  0.93348243     0.15500
H1703       H  0.47159756  0.64503476  0.92726094     0.15200
N1704       N  0.46896707  0.66344273  0.98239233     0.74300
O1705       O  0.00034928  0.72707263  0.85918849    -0.39100
O1706       O  0.06733457  0.72981017  0.87748236    -0.39100
O1707       O  0.44539092  0.64252159  0.97884961    -0.39800
O1708       O  0.48032591  0.66989529  0.00831729    -0.39800
C1709       C  0.37386764  0.56161275  0.99084611    -0.12100
C1710       C  0.35116784  0.55887334  0.96396322     0.04900
C1711       C  0.35983815  0.53576464  0.94615855    -0.07400
C1712       C  0.39259728  0.51687151  0.95476060    -0.08100
C1713       C  0.41774221  0.52105767  0.98044334    -0.02700
C1714       C  0.40275202  0.54261830  0.50022421     0.04100
N1715       N  0.42677384  0.54840256  0.52674613     0.66600
H1716       H  0.36200333  0.57789869  0.50595334     0.15500
H1717       H  0.39974494  0.49957589  0.94070625     0.15200
N1718       N  0.33625932  0.53136793  0.91913157     0.74300
O1719       O  0.40735609  0.54567012  0.55126150    -0.39100
O1720       O  0.45620187  0.07191371  0.52239097    -0.39100
O1721       O  0.35710410  0.53138834  0.89493580    -0.39800
O1722       O  0.29735244  0.52204977  0.92002541    -0.39800
C1723       C  0.13018811  0.56277276  0.99264485    -0.12100
C1724       C  0.14830077  0.56294227  0.96427766     0.04900
C1725       C  0.13379716  0.54372341  0.94325071    -0.07400
C1726       C  0.10040369  0.52515913  0.95071927    -0.08100
C1727       C  0.08068661  0.52572404  0.97887938    -0.02700
C1728       C  0.09653625  0.54495040  0.50144088     0.04100
N1729       N  0.07829134  0.54775060  0.53044777     0.66600
H1730       H  0.14260909  0.57739138  0.50904593     0.15500
H1731       H  0.08859460  0.51100822  0.93413232     0.15200
N1732       N  0.15256844  0.54295761  0.91425261     0.74300
O1733       O  0.10233934  0.54196114  0.55255987    -0.39100
O1734       O  0.04606192  0.56389726  0.53399655    -0.39100
O1735       O  0.18803718  0.52976464  0.90986373    -0.39800
O1736       O  0.13069100  0.55210002  0.89245511    -0.39800
C1737       C  0.00906680  0.56278872  0.95227370    -0.12100
C1738       C  0.99736789  0.53564653  0.94746543     0.04900
C1739       C  0.49000663  0.52608654  0.91932442    -0.07400
C1740       C  0.49276204  0.54410499  0.89541719    -0.08100
C1741       C  0.00768763  0.57124136  0.89937837    -0.02700
C1742       C  0.01701020  0.58030860  0.92846164     0.04100
N1743       N  0.03779674  0.60611382  0.93401567     0.66600
H1744       H  0.01569872  0.56959504  0.97464097     0.15500
H1745       H  0.48532791  0.53703557  0.87321752     0.15200
N1746       N  0.48200213  0.49787571  0.91349784     0.74300
O1747       O  0.03492950  0.61700794  0.95927470    -0.39100
O1748       O  0.06638654  0.61502335  0.91618467    -0.39100
O1749       O  0.45264159  0.49112432  0.89489446    -0.39800
O1750       O  0.51027642  0.48036482  0.92172706    -0.39800
C1751       C  0.39523015  0.97149320  0.53792505    -0.12100
C1752       C  0.41910752  0.96807202  0.51155330     0.04900
C1753       C  0.40837191  0.94589482  0.49295469    -0.07400
C1754       C  0.37488908  0.92757732  0.50105512    -0.08100
C1755       C  0.35248562  0.93037039  0.52801632    -0.02700
C1756       C  0.36278148  0.95264084  0.54649627     0.04100
N1757       N  0.34158188  0.95587178  0.57452611     0.66600
H1758       H  0.38236200  0.49583247  0.53785372     0.15500
H1759       H  0.36797446  0.91028545  0.48691062     0.15200
N1760       N  0.43366655  0.94039284  0.46693438     0.74300
O1761       O  0.36061657  0.94708649  0.59763623    -0.39100
O1762       O  0.30871720  0.97178896  0.57683528    -0.39100
O1763       O  0.46438064  0.92283228  0.46815338    -0.38200
O1764       O  0.41855005  0.94758757  0.44199551    -0.39800
C1765       C  0.13593302  0.93842610  0.50189915    -0.12100
C1766       C  0.15040258  0.93773995  0.53145361     0.04900
C1767       C  0.13490883  0.95816513  0.55117353    -0.07400
C1768       C  0.10165867  0.97625037  0.54210869    -0.08100
C1769       C  0.08364056  0.97460871  0.51367621    -0.02700
C1770       C  0.10272613  0.95665393  0.49287339     0.04100
N1771       N  0.08554553  0.95461846  0.46340637     0.66600
H1772       H  0.14793498  0.92346042  0.48617730     0.15500
H1773       H  0.08956461  0.49167691  0.55892714     0.15200
N1774       N  0.15186881  0.96085309  0.58059225     0.74300
O1775       O  0.05459866  0.94174836  0.95788928    -0.39100
O1776       O  0.11107008  0.95835536  0.44170751    -0.39100
O1777       O  0.17574674  0.98115584  0.58648543    -0.39800
O1778       O  0.13283600  0.94852717  0.60148652    -0.39800
C1779       C  0.02284631  0.93429677  0.54582034    -0.12100
C1780       C  0.00288279  0.96019171  0.54633687     0.04900
C1781       C  0.49373401  0.97225715  0.57319810    -0.07400
C1782       C  0.49632960  0.95587714  0.59852864    -0.08100
C1783       C  0.01206443  0.92966456  0.59891994    -0.02700
C1784       C  0.02992303  0.91950191  0.57213951     0.04100
N1785       N  0.05592991  0.89477414  0.57140695     0.66600
H1786       H  0.03513754  0.92633665  0.52503171     0.15500
H1787       H  0.48788179  0.96430903  0.61998586     0.15200
N1788       N  0.48349841  0.00057082  0.57679726     0.74300
O1789       O  0.06018768  0.88175475  0.54748856    -0.39100
O1790       O  0.08056953  0.88839151  0.59306274    -0.39100
O1791       O  0.45588906  0.00802478  0.59619484    -0.39800
O1792       O  0.50841825  0.01812227  0.56535634    -0.39800
C1793       C  0.50298608  0.47587608  0.01763976     0.02400
C1794       C  0.54264527  0.48741831  0.00656564     0.02400
C1795       C  0.53868412  0.00912000  0.48406861     0.02400
C1796       C  0.99745334  0.01787725  0.47508887     0.02400
C1797       C  0.95763388  0.00694893  0.48657720     0.02400
C1798       C  0.96153924  0.48327057  0.00457908     0.02400
O1799       O  0.96842122  0.16354868  0.35815354    -0.85200
O1800       O  0.92117798  0.15190133  0.30752618    -0.82200
C1801       C  0.93688992  0.16800274  0.28844086     0.98300
O1802       O  0.97466830  0.16388674  0.27737834    -0.82300
O1803       O  0.56287153  0.14803479  0.27350721    -0.84900
C1804       C  0.58141780  0.16348532  0.29225118     1.02800
O1805       O  0.57510138  0.15996253  0.31951425    -0.77700
O1806       O  0.53364896  0.14765161  0.37148301    -0.77900
C1807       C  0.50118342  0.16385990  0.37474376     1.02700
O1808       O  0.97318791  0.10737775  0.37294644    -0.85200
O1809       O  0.93295964  0.09451873  0.31978101    -0.82300
C1810       C  0.92628338  0.09228669  0.29230583     0.98300
O1811       O  0.94502047  0.10831310  0.27432323    -0.82300
O1812       O  0.53340002  0.09218127  0.27445893    -0.84900
C1813       C  0.57061105  0.08720441  0.28628110     1.02800
O1814       O  0.58593790  0.10265743  0.30626197    -0.77700
O1815       O  0.53739289  0.09105466  0.35580666    -0.77900
C1816       C  0.50502715  0.09052920  0.37332347     1.02700
Cr1817     Cr  0.95276349  0.12912182  0.33785962     1.93700
Cr1818     Cr  0.50435114  0.12853959  0.27703906     1.93200
Cr1819     Cr  0.55436881  0.12556144  0.33654907     1.39100
O1820       O  0.50397276  0.12786765  0.31651260    -1.22900
C1821       C  0.99557765  0.22345828  0.48720887     0.02400
C1822       C  0.95453996  0.23375324  0.49804348     0.02400
C1823       C  0.95579135  0.25234667  0.01943699     0.02400
C1824       C  0.49812327  0.26393219  0.03024921     0.02400
C1825       C  0.53922696  0.25510181  0.01814142     0.02400
C1826       C  0.53649650  0.23372073  0.49820189     0.02400
O1827       O  0.54290318  0.40924587  0.14259397    -0.85200
O1828       O  0.58689620  0.39402936  0.19397031    -0.82200
C1829       C  0.57413763  0.41193292  0.21220298     0.98300
O1830       O  0.53549824  0.41152411  0.22273070    -0.82300
O1831       O  0.94710299  0.40283478  0.22528628    -0.84900
C1832       C  0.93166230  0.42032798  0.20719405     1.02800
O1833       O  0.93751056  0.41694781  0.17979765    -0.77700
O1834       O  0.97395250  0.39934305  0.12728402    -0.77900
C1835       C  0.51111764  0.41243626  0.12459686     1.02700
O1836       O  0.52628323  0.35394654  0.12900360    -0.85200
O1837       O  0.56318200  0.33832978  0.18232233    -0.82300
C1838       C  0.56972757  0.33612286  0.20982672     0.98300
O1839       O  0.55310261  0.35366945  0.22728648    -0.82300
O1840       O  0.96348150  0.34467235  0.22334841    -0.84900
C1841       C  0.92519590  0.34371233  0.21200578     1.02800
O1842       O  0.91258591  0.36138543  0.19331773    -0.77700
O1843       O  0.95611099  0.34457498  0.14319012    -0.77900
C1844       C  0.49068457  0.34089597  0.12584541     1.02700
Cr1845     Cr  0.55090265  0.37412202  0.16358367     1.93700
Cr1846     Cr  0.49919799  0.37815316  0.22172159     1.93200
Cr1847     Cr  0.94883946  0.38043030  0.16255565     1.39100
O1848       O  0.49979061  0.37754323  0.18244996    -1.22900
C1849       C  0.74665594  0.02330785  0.26941593     0.02400
C1850       C  0.70774371  0.01061434  0.25864987     0.02400
C1851       C  0.71122421  0.48939547  0.23759971     0.02400
C1852       C  0.75324366  0.48272495  0.22523203     0.02400
C1853       C  0.79223136  0.49548924  0.23626226     0.02400
C1854       C  0.78865495  0.01708379  0.25715049     0.02400
O1855       O  0.77228647  0.35185770  0.12261716    -0.85200
O1856       O  0.81180233  0.33510097  0.07109880    -0.82200
C1857       C  0.81890111  0.33159766  0.04389183     0.98300
O1858       O  0.80332645  0.34838028  0.02505902    -0.82300
O1859       O  0.71309146  0.33905439  0.02640527    -0.84900
C1860       C  0.67439596  0.33768574  0.03691452     1.02800
O1861       O  0.66131987  0.35533201  0.05551244    -0.77700
O1862       O  0.70668055  0.33984747  0.10599701    -0.77900
C1863       C  0.73757377  0.33765778  0.12467846     1.02700
O1864       O  0.78883735  0.40688827  0.10653610    -0.85200
O1865       O  0.83613073  0.39027386  0.05769093    -0.82300
C1866       C  0.82402955  0.40773746  0.03864293     0.98300
O1867       O  0.78571596  0.40670081  0.02729201    -0.82300
O1868       O  0.69598571  0.39758899  0.02373927    -0.84900
C1869       C  0.68052901  0.41483165  0.04201303     1.02800
O1870       O  0.68542062  0.41110431  0.06928163    -0.77700
O1871       O  0.72207601  0.39600324  0.12145447    -0.77900
C1872       C  0.75698174  0.41006210  0.12416046     1.02700
Cr1873     Cr  0.79864712  0.37109780  0.08783935     1.93700
Cr1874     Cr  0.74940513  0.37293252  0.02836490     1.93200
Cr1875     Cr  0.69752112  0.37535826  0.08648467     1.39100
O1876       O  0.74853085  0.37308675  0.06752457    -1.22900
C1877       C  0.75845994  0.23221096  0.27288608     0.02400
C1878       C  0.79746519  0.24242706  0.25926352     0.02400
C1879       C  0.79349038  0.26202689  0.23640014     0.02400
C1880       C  0.75077294  0.27045419  0.22708676     0.02400
C1881       C  0.71262214  0.26301458  0.24305928     0.02400
C1882       C  0.71585584  0.24235698  0.26450496     0.02400
O1883       O  0.71119570  0.09398300  0.38885792    -0.85200
O1884       O  0.66302069  0.10468011  0.43783178    -0.82200
C1885       C  0.67628812  0.08579645  0.45492085     0.98300
O1886       O  0.71385957  0.08706776  0.46724209    -0.82300
O1887       O  0.80256528  0.09839992  0.47358728    -0.84900
C1888       C  0.81974059  0.08251650  0.45467433     1.02800
O1889       O  0.81474419  0.08716944  0.42746972    -0.77700
O1890       O  0.77847975  0.10583367  0.37579669    -0.77900
C1891       C  0.74402298  0.09175013  0.37201341     1.02700
O1892       O  0.72528736  0.15049863  0.37799673    -0.85200
O1893       O  0.68386257  0.16217890  0.43083784    -0.82300
C1894       C  0.67611521  0.16246063  0.45820986     0.98300
O1895       O  0.69196432  0.14389656  0.47478364    -0.82300
O1896       O  0.78123263  0.15548266  0.47540269    -0.84900
C1897       C  0.81941496  0.15859725  0.46464391     1.02800
O1898       O  0.83417173  0.14261529  0.44497766    -0.77700
O1899       O  0.79146948  0.16064690  0.39503308    -0.77900
C1900       C  0.76031478  0.16451257  0.37680289     1.02700
Cr1901     Cr  0.69945356  0.12780273  0.41051621     1.93700
Cr1902     Cr  0.74751503  0.12145063  0.46995201     1.93200
Cr1903     Cr  0.80094688  0.12405411  0.41238930     1.39100
O1904       O  0.74935981  0.12460138  0.43091258    -1.22900
C1905       C  0.76010188  0.22646284  0.32713828    -0.12100
C1906       C  0.76216165  0.21410918  0.29917395     0.04900
C1907       C  0.76941249  0.18572492  0.29731978    -0.07400
C1908       C  0.77073686  0.17029748  0.32339677    -0.08100
C1909       C  0.76641113  0.18257713  0.35124838    -0.02700
C1910       C  0.76304904  0.21110362  0.35328082     0.04100
N1911       N  0.76292070  0.22473754  0.38138138     0.66600
H1912       H  0.75712856  0.24842428  0.32853805     0.15500
H1913       H  0.77415898  0.14835427  0.32189930     0.15200
N1914       N  0.77576213  0.17213913  0.26957575     0.74300
O1915       O  0.79236936  0.21901903  0.40039068    -0.39100
O1916       O  0.73949609  0.24586754  0.38496940    -0.39100
O1917       O  0.80691695  0.15500019  0.26699678    -0.39800
O1918       O  0.74553847  0.17271826  0.25019660    -0.39800
C1919       C  0.73240238  0.29208000  0.14748400    -0.12100
C1920       C  0.73263847  0.32037505  0.15068865     0.04900
C1921       C  0.73458756  0.33212258  0.17915180    -0.07400
C1922       C  0.74367337  0.31551235  0.20347478    -0.08100
C1923       C  0.74564466  0.28729779  0.20030637    -0.02700
C1924       C  0.73760933  0.27532287  0.17234726     0.04100
N1925       N  0.73389911  0.24641848  0.16898811     0.66600
H1926       H  0.72953666  0.28305765  0.12564978     0.15500
H1927       H  0.74713020  0.32452115  0.22517367     0.15200
N1928       N  0.72375144  0.36032165  0.18381634     0.74300
O1929       O  0.76703425  0.23114189  0.17363421    -0.39100
O1930       O  0.69914018  0.23646749  0.15778804    -0.39100
O1931       O  0.69074391  0.37056595  0.17042627    -0.39800
O1932       O  0.73932290  0.37270984  0.20599916    -0.39800
C1933       C  0.78059426  0.44018178  0.19968562    -0.12100
C1934       C  0.75546944  0.46437965  0.19866277     0.04900
C1935       C  0.73298540  0.47117002  0.17195336    -0.07400
C1936       C  0.73402334  0.45283568  0.14814812    -0.08100
C1937       C  0.76050275  0.42939101  0.14896552    -0.02700
C1938       C  0.78604300  0.42360722  0.17461073     0.04100
N1939       N  0.81739221  0.40128847  0.17578189     0.66600
H1940       H  0.79716924  0.43441264  0.21993213     0.15500
H1941       H  0.71531693  0.45729323  0.12831213     0.15200
N1942       N  0.71010832  0.49676316  0.16823436     0.74300
O1943       O  0.84001757  0.39514527  0.15326594    -0.39100
O1944       O  0.82846047  0.39107032  0.20044189    -0.39100
O1945       O  0.72705897  0.51844654  0.17792218    -0.39800
O1946       O  0.67603530  0.49830080  0.15187870    -0.39800
C1947       C  0.76284173  0.04872315  0.34782223    -0.12100
C1948       C  0.74137222  0.07388158  0.34649617     0.04900
C1949       C  0.72021780  0.08252198  0.32022404    -0.07400
C1950       C  0.72391772  0.06640217  0.29481197    -0.08100
C1951       C  0.74456153  0.04073567  0.29618167    -0.02700
C1952       C  0.76322927  0.03155576  0.32326738     0.04100
N1953       N  0.78059058  0.00447592  0.32658621     0.66600
H1954       H  0.77786247  0.04204202  0.36838839     0.15500
H1955       H  0.70924570  0.07343675  0.27423262     0.15200
N1956       N  0.69451412  0.10724948  0.31928801     0.74300
O1957       O  0.81652903  0.49954576  0.34110665    -0.39100
O1958       O  0.76119469  0.48383572  0.31531031    -0.39100
O1959       O  0.69592501  0.12252658  0.29683120    -0.39800
O1960       O  0.66613418  0.11207651  0.33914070    -0.39800
C1961       C  0.62543591  0.31948728  0.24706794    -0.12100
C1962       C  0.60033002  0.31445752  0.22132923     0.04900
C1963       C  0.60860553  0.29013526  0.20544953    -0.07400
C1964       C  0.64307984  0.27250159  0.21429272    -0.08100
C1965       C  0.67045049  0.27873391  0.23848362    -0.02700
C1966       C  0.66077774  0.30223976  0.25552834     0.04100
N1967       N  0.68770446  0.30974519  0.28054229     0.66600
H1968       H  0.61978493  0.33802444  0.25952870     0.15500
H1969       H  0.64963488  0.25431863  0.20148824     0.15200
N1970       N  0.58271345  0.28318448  0.17999800     0.74300
O1971       O  0.66938333  0.31681177  0.30445109    -0.39100
O1972       O  0.72850144  0.31440862  0.27719751    -0.39100
O1973       O  0.60070582  0.28243436  0.15481168    -0.39800
O1974       O  0.54437953  0.27348147  0.18334871    -0.39800
C1975       C  0.88677035  0.30141251  0.19840734    -0.12100
C1976       C  0.89480514  0.32154524  0.21970264     0.04900
C1977       C  0.87040280  0.32152622  0.24622856    -0.07400
C1978       C  0.83826910  0.30149445  0.25063268    -0.08100
C1979       C  0.83138527  0.28051319  0.23009623    -0.02700
C1980       C  0.85559962  0.28080973  0.20329580     0.04100
N1981       N  0.84832841  0.26124640  0.18038499     0.66600
H1982       H  0.90478207  0.30180081  0.17766185     0.15500
H1983       H  0.81777431  0.30246802  0.27026661     0.15200
N1984       N  0.87650761  0.34210737  0.26837207     0.74300
O1985       O  0.86180003  0.23714545  0.18412994    -0.39100
O1986       O  0.84054252  0.26944176  0.15433473    -0.39100
O1987       O  0.84327184  0.35180409  0.28177861    -0.39800
O1988       O  0.91497646  0.34730166  0.27793329    -0.39800
C1989       C  0.89250809  0.46494509  0.19777411    -0.12100
C1990       C  0.90364998  0.44370574  0.21764728     0.04900
C1991       C  0.88411712  0.44404475  0.24614818    -0.07400
C1992       C  0.85034077  0.46288462  0.25254827    -0.08100
C1993       C  0.83630089  0.48219664  0.23155942    -0.02700
C1994       C  0.85975492  0.48442929  0.20484634     0.04100
N1995       N  0.84904686  0.00561911  0.18379702     0.66600
H1996       H  0.90833289  0.46600943  0.17629907     0.15500
H1997       H  0.83279753  0.46123991  0.27338959     0.15200
N1998       N  0.89577179  0.42433684  0.26821882     0.74300
O1999       O  0.86477091  0.02906833  0.18784920    -0.39100
O2000       O  0.82954073  0.00019510  0.15973868    -0.39100
O2001       O  0.93235862  0.42633734  0.28177654    -0.39800
O2002       O  0.86636266  0.40872995  0.27827227    -0.39800
C2003       C  0.64064877  0.42592700  0.24026134    -0.12100
C2004       C  0.60546144  0.43300514  0.22137177     0.04900
C2005       C  0.60336542  0.45925269  0.20892662    -0.07400
C2006       C  0.63747096  0.47779151  0.21473343    -0.08100
C2007       C  0.67339138  0.47055206  0.23312873    -0.02700
C2008       C  0.67413514  0.44461785  0.24665782     0.04100
N2009       N  0.70848425  0.43709749  0.26717665     0.66600
H2010       H  0.64229487  0.40571782  0.24988303     0.15500
H2011       H  0.63615874  0.49767140  0.20448810     0.15200
N2012       N  0.56786727  0.46679762  0.18930664     0.74300
O2013       O  0.70189159  0.44003940  0.29455944    -0.39100
O2014       O  0.73958384  0.42165734  0.25881157    -0.39100
O2015       O  0.52859060  0.46845123  0.19881173    -0.39800
O2016       O  0.57564619  0.47151859  0.16234359    -0.39800
C2017       C  0.61913078  0.17517574  0.49489573    -0.12100
C2018       C  0.64505736  0.18288269  0.47074134     0.04900
C2019       C  0.63906083  0.20908469  0.45851162    -0.07400
C2020       C  0.60736092  0.22558468  0.96848549    -0.08100
C2021       C  0.57777682  0.21789564  0.49236290    -0.02700
C2022       C  0.58539244  0.19206950  0.50596570     0.04100
N2023       N  0.55920848  0.18220619  0.53044336     0.66600
H2024       H  0.62422759  0.15521834  0.50458940     0.15500
H2025       H  0.60157449  0.24522172  0.95815913     0.15200
N2026       N  0.66751244  0.21787575  0.93352693     0.74300
O2027       O  0.56178622  0.15757007  0.53834623    -0.39100
O2028       O  0.53405889  0.19787695  0.54482768    -0.39100
O2029       O  0.65628769  0.21304035  0.90708220    -0.39800
O2030       O  0.69619975  0.23584415  0.93877743    -0.39800
C2031       C  0.89549465  0.20179192  0.00991840    -0.12100
C2032       C  0.91207233  0.21993505  0.49003467     0.04900
C2033       C  0.89488247  0.21911092  0.46080994    -0.07400
C2034       C  0.86439462  0.19884877  0.45322510    -0.08100
C2035       C  0.84774710  0.18100137  0.47456880    -0.02700
C2036       C  0.86287715  0.18289687  0.00250045     0.04100
N2037       N  0.84604176  0.16522613  0.02489101     0.66600
H2038       H  0.90931166  0.20133548  0.03202727     0.15500
H2039       H  0.85382350  0.19682078  0.43039948     0.15200
N2040       N  0.90820509  0.23813985  0.43854162     0.74300
O2041       O  0.86351154  0.14207449  0.02881706    -0.39100
O2042       O  0.81787518  0.17408309  0.04317782    -0.39100
O2043       O  0.89956632  0.26303498  0.44218260    -0.39800
O2044       O  0.91606424  0.22978368  0.41264146    -0.39800
C2045       C  0.65137114  0.28883703  0.03824017    -0.12100
C2046       C  0.64382347  0.31540669  0.02773788     0.04900
C2047       C  0.60513272  0.32065976  0.01085726    -0.07400
C2048       C  0.57288778  0.30022377  0.00779571    -0.08100
C2049       C  0.57841834  0.27413118  0.02033433    -0.02700
C2050       C  0.61960243  0.26805673  0.03440589     0.04100
N2051       N  0.63005775  0.24134925  0.04517673     0.66600
H2052       H  0.68156011  0.28444391  0.05057667     0.15500
H2053       H  0.54290063  0.30467269  0.99527243     0.15200
N2054       N  0.59897850  0.34614420  0.99568362     0.74300
O2055       O  0.66803026  0.23120045  0.04053399    -0.39100
O2056       O  0.60433477  0.22962422  0.06291972    -0.39100
O2057       O  0.62406635  0.36069442  0.48728161    -0.39800
O2058       O  0.56035840  0.35555334  0.99134124    -0.39800
C2059       C  0.90420420  0.28860407  0.00303598    -0.12100
C2060       C  0.91406708  0.26842920  0.02415738     0.04900
C2061       C  0.88886197  0.26767110  0.05051063    -0.07400
C2062       C  0.85626222  0.28760056  0.05545076    -0.08100
C2063       C  0.84799347  0.30855930  0.03488920    -0.02700
C2064       C  0.87125661  0.30828147  0.00785344     0.04100
N2065       N  0.86474971  0.32907894  0.98610221     0.66600
H2066       H  0.92494299  0.29057278  0.98367938     0.15500
H2067       H  0.84179942  0.28997735  0.58042622     0.15200
N2068       N  0.90266226  0.25197679  0.57750260     0.74300
O2069       O  0.89192074  0.34844640  0.98464199    -0.39100
O2070       O  0.83833442  0.32501351  0.96479505    -0.39100
O2071       O  0.91206404  0.26196999  0.60249721    -0.39800
O2072       O  0.89073383  0.22747921  0.57633935    -0.39800
C2073       C  0.50494444  0.29507322  0.10717074    -0.12100
C2074       C  0.48838119  0.32116854  0.10178800     0.04900
C2075       C  0.97610397  0.32775110  0.07320064    -0.07400
C2076       C  0.98207343  0.30897928  0.05031304    -0.08100
C2077       C  0.49762262  0.28394949  0.05496161    -0.02700
C2078       C  0.50889894  0.27612949  0.08424529     0.04100
N2079       N  0.52194465  0.24881289  0.09150391     0.66600
H2080       H  0.51400771  0.28926169  0.12955309     0.15500
H2081       H  0.97569784  0.31526559  0.02768201     0.15200
N2082       N  0.96028256  0.35462637  0.06636464     0.74300
O2083       O  0.55132330  0.24469136  0.11109662    -0.39100
O2084       O  0.49762262  0.22929998  0.08364724    -0.39100
O2085       O  0.97602809  0.36739000  0.04457782    -0.39800
O2086       O  0.92565235  0.36358729  0.07874432    -0.39800
C2087       C  0.61922454  0.20722085  0.30259974    -0.12100
C2088       C  0.61163678  0.18556288  0.28289714     0.04900
C2089       C  0.63434167  0.18525964  0.25561322    -0.07400
C2090       C  0.66587227  0.20528664  0.24964747    -0.08100
C2091       C  0.67601768  0.22552183  0.27043753    -0.02700
C2092       C  0.65054953  0.22733733  0.29645027     0.04100
N2093       N  0.65297270  0.25036647  0.31559542     0.66600
H2094       H  0.60051112  0.20867957  0.32299738     0.15500
H2095       H  0.68402427  0.20440611  0.22897167     0.15200
N2096       N  0.62815588  0.16392024  0.23454443     0.74300
O2097       O  0.62400537  0.26881246  0.31237844    -0.39100
O2098       O  0.67103044  0.24756786  0.34067489    -0.39100
O2099       O  0.59581160  0.16516005  0.21669786    -0.39800
O2100       O  0.65973215  0.14760176  0.22943096    -0.39800
C2101       C  0.89700606  0.21098345  0.29896901    -0.12100
C2102       C  0.90917173  0.19094844  0.27847435     0.04900
C2103       C  0.88999397  0.19115099  0.25007048    -0.07400
C2104       C  0.85495716  0.20916530  0.24387431    -0.08100
C2105       C  0.84103815  0.22859365  0.26476295    -0.02700
C2106       C  0.86441575  0.23053301  0.29197893     0.04100
N2107       N  0.85600646  0.25208871  0.31257878     0.66600
H2108       H  0.91289626  0.21133894  0.32057428     0.15500
H2109       H  0.83642270  0.20665638  0.22347468     0.15200
N2110       N  0.90342489  0.17179637  0.22818648     0.74300
O2111       O  0.85220553  0.24659670  0.33976715    -0.39100
O2112       O  0.86607425  0.27602724  0.30534334    -0.39100
O2113       O  0.88631471  0.14844753  0.22756618    -0.39800
O2114       O  0.93433175  0.17752674  0.21051610    -0.39800
C2115       C  0.86050450  0.08037277  0.26171549    -0.12100
C2116       C  0.89415120  0.07198141  0.28130819     0.04900
C2117       C  0.89457020  0.04489005  0.29167226    -0.07400
C2118       C  0.86102844  0.02692339  0.28282484    -0.08100
C2119       C  0.82693736  0.03538553  0.26356876    -0.02700
C2120       C  0.82701734  0.06242391  0.25273467     0.04100
N2121       N  0.79285706  0.07208098  0.23303755     0.66600
H2122       H  0.85967383  0.10119696  0.25384217     0.15500
H2123       H  0.86175418  0.50594220  0.29036836     0.15200
N2124       N  0.92919902  0.03524275  0.31086232     0.74300
O2125       O  0.77393056  0.09464672  0.23784582    -0.39100
O2126       O  0.78542932  0.05980719  0.20899078    -0.39100
O2127       O  0.91962596  0.02485344  0.33557564    -0.39800
O2128       O  0.96852800  0.03362411  0.30144203    -0.39800
C2129       C  0.64840280  0.04221889  0.24204709    -0.12100
C2130       C  0.66375307  0.02405800  0.26393204     0.04900
C2131       C  0.64302307  0.02430160  0.29195484    -0.07400
C2132       C  0.61118284  0.04449391  0.29839227    -0.08100
C2133       C  0.59764588  0.06350111  0.27688343    -0.02700
C2134       C  0.61493106  0.06140120  0.24801476     0.04100
N2135       N  0.60169035  0.08002626  0.22522750     0.66600
H2136       H  0.66444258  0.04257155  0.22060217     0.15500
H2137       H  0.59739235  0.04567088  0.32050295     0.15200
N2138       N  0.65497378  0.00487513  0.31428367     0.74300
O2139       O  0.63044489  0.09486882  0.21315638    -0.39100
O2140       O  0.56434332  0.07723274  0.21284535    -0.39100
O2141       O  0.66105210  0.01255302  0.34067072    -0.39800
O2142       O  0.65037419  0.97985405  0.30898978    -0.39800
C2143       C  0.51353524  0.21992019  0.43198604    -0.12100
C2144       C  0.49793438  0.20701085  0.45782586     0.04900
C2145       C  0.98108684  0.17948883  0.45694206    -0.07400
C2146       C  0.98135611  0.16678106  0.42897271    -0.08100
C2147       C  0.49817322  0.17993721  0.40227822    -0.02700
C2148       C  0.51351839  0.20674938  0.40437654     0.04100
N2149       N  0.52746956  0.22116605  0.37852943     0.66600
H2150       H  0.52437010  0.24088148  0.43311447     0.15500
H2151       H  0.96963019  0.14607731  0.42683278     0.15200
N2152       N  0.96459563  0.16435149  0.48193668     0.74300
O2153       O  0.49973599  0.22649411  0.35823865    -0.39100
O2154       O  0.56552108  0.23171904  0.37773608    -0.39100
O2155       O  0.94095196  0.14353150  0.47791187    -0.39800
O2156       O  0.97530156  0.17056705  0.50805316    -0.39800
C2157       C  0.87251620  0.06338324  0.49119883    -0.12100
C2158       C  0.84912591  0.06001666  0.46463966     0.04900
C2159       C  0.85754510  0.03659053  0.44728839    -0.07400
C2160       C  0.89027661  0.01777176  0.45618267    -0.08100
C2161       C  0.91581917  0.02240590  0.48163394    -0.02700
C2162       C  0.90905123  0.04513905  0.99918834     0.04100
N2163       N  0.93606198  0.05238086  0.02394642     0.66600
H2164       H  0.86998592  0.08126837  0.00392130     0.15500
H2165       H  0.89726487  0.00024935  0.44242150     0.15200
N2166       N  0.83418537  0.03201569  0.42019330     0.74300
O2167       O  0.92320970  0.04559452  0.04942116    -0.39100
O2168       O  0.96363100  0.56163686  0.02297916    -0.39100
O2169       O  0.85423821  0.03465948  0.39588252    -0.39800
O2170       O  0.79685406  0.02053450  0.42073719    -0.39800
C2171       C  0.63153967  0.06108931  0.49157386    -0.12100
C2172       C  0.64614168  0.06332176  0.46240621     0.04900
C2173       C  0.62930060  0.04541007  0.44078539    -0.07400
C2174       C  0.59661436  0.02639776  0.44847183    -0.08100
C2175       C  0.57946426  0.02545589  0.47741138    -0.02700
C2176       C  0.59894052  0.04420889  0.00100395     0.04100
N2177       N  0.58061278  0.04645480  0.03003533     0.66600
H2178       H  0.64402823  0.07702233  0.00922164     0.15500
H2179       H  0.58313347  0.01321187  0.43150333     0.15200
N2180       N  0.64544408  0.04616782  0.41108729     0.74300
O2181       O  0.60460683  0.04005602  0.05197507    -0.39100
O2182       O  0.54908582  0.06302916  0.03399306    -0.39100
O2183       O  0.68056714  0.03341102  0.40454763    -0.39800
O2184       O  0.62200664  0.05670435  0.39079949    -0.39800
C2185       C  0.50798371  0.06300988  0.45121360    -0.12100
C2186       C  0.49557612  0.03595913  0.44654046     0.04900
C2187       C  0.98810507  0.02758972  0.42049310    -0.07400
C2188       C  0.99130332  0.04568507  0.39669096    -0.08100
C2189       C  0.50495206  0.07159541  0.39834427    -0.02700
C2190       C  0.51550917  0.08048854  0.42730069     0.04100
N2191       N  0.53725728  0.10602846  0.43256086     0.66600
H2192       H  0.51561965  0.06970960  0.47350004     0.15500
H2193       H  0.98433347  0.03865976  0.37441467     0.15200
N2194       N  0.97983718  0.99944518  0.41449498     0.74300
O2195       O  0.53450632  0.11729939  0.45762797    -0.39100
O2196       O  0.56658327  0.11414953  0.41481398    -0.39100
O2197       O  0.95014135  0.99290119  0.39604167    -0.39800
O2198       O  0.00807855  0.98179920  0.42243575    -0.39800
C2199       C  0.88706715  0.47402925  0.02820918    -0.12100
C2200       C  0.92243576  0.46533235  0.01027585     0.04900
C2201       C  0.92332329  0.43797013  0.00049155    -0.07400
C2202       C  0.89093526  0.41968520  0.01008562    -0.08100
C2203       C  0.85628820  0.42819471  0.02841305    -0.02700
C2204       C  0.85404649  0.45569084  0.03728068     0.04100
N2205       N  0.82010638  0.46481820  0.05700658     0.66600
H2206       H  0.88539286  0.99605651  0.03683788     0.15500
H2207       H  0.89249796  0.39871383  0.00285818     0.15200
N2208       N  0.95650029  0.42862140  0.98022901     0.74300
O2209       O  0.82408488  0.46044160  0.08445121    -0.39100
O2210       O  0.79009618  0.48077414  0.04774195    -0.39100
O2211       O  0.97674042  0.40644797  0.98501402    -0.38200
O2212       O  0.95951720  0.43978283  0.95513946    -0.39800
C2213       C  0.63995992  0.43916250  0.00195064    -0.12100
C2214       C  0.65323971  0.43817956  0.03173792     0.04900
C2215       C  0.63632591  0.45809015  0.05154347    -0.07400
C2216       C  0.60275449  0.47581918  0.04221022    -0.08100
C2217       C  0.58583231  0.47435628  0.01345157    -0.02700
C2218       C  0.60634708  0.45697287  0.99267573     0.04100
N2219       N  0.58992548  0.45475550  0.96302832     0.66600
H2220       H  0.65304091  0.42457396  0.98619132     0.15500
H2221       H  0.59029857  0.99038926  0.05818554     0.15200
N2222       N  0.65174189  0.46041230  0.08138622     0.74300
O2223       O  0.55024523  0.44122761  0.46138556    -0.39100
O2224       O  0.61616174  0.45795656  0.94160416    -0.39100
O2225       O  0.67379619  0.48118118  0.08842817    -0.39800
O2226       O  0.63269810  0.44702057  0.10147861    -0.39800
C2227       C  0.52635282  0.43370405  0.04525121    -0.12100
C2228       C  0.50469408  0.45909809  0.04518993     0.04900
C2229       C  0.98786164  0.46926987  0.07112496    -0.07400
C2230       C  0.99044146  0.45351194  0.09688706    -0.08100
C2231       C  0.51545320  0.42970216  0.09837918    -0.02700
C2232       C  0.53429095  0.41956067  0.07188783     0.04100
N2233       N  0.56192472  0.39547271  0.07170703     0.66600
H2234       H  0.53948251  0.42577687  0.02467927     0.15500
H2235       H  0.97489582  0.46077315  0.11704173     0.15200
N2236       N  0.96957995  0.49621046  0.07298026     0.74300
O2237       O  0.56815827  0.38260947  0.04788898    -0.39100
O2238       O  0.58585756  0.38958335  0.09386871    -0.39100
O2239       O  0.93611343  0.50071666  0.08904600    -0.39800
O2240       O  0.99205792  0.51607373  0.06384951    -0.39800
C2241       C  0.50168868  0.47745296  0.52025663     0.02400
C2242       C  0.54106528  0.48892434  0.50857742     0.02400
C2243       C  0.54107621  0.00958792  0.98641446     0.02400
C2244       C  0.99962664  0.01757590  0.97463465     0.02400
C2245       C  0.96029386  0.00652630  0.98668353     0.02400
C2246       C  0.95985325  0.48508953  0.50921782     0.02400
O2247       O  0.96783625  0.16276555  0.85789626    -0.85200
O2248       O  0.91928903  0.15196707  0.80755002    -0.82200
C2249       C  0.93476670  0.16794937  0.78825579     0.98300
O2250       O  0.97221053  0.16366713  0.77681675    -0.82300
O2251       O  0.56053468  0.14743319  0.77452603    -0.84900
C2252       C  0.57888893  0.16308135  0.79313316     1.02800
O2253       O  0.57280248  0.15943393  0.82040289    -0.77700
O2254       O  0.53204894  0.14687599  0.87239596    -0.77900
C2255       C  0.49932501  0.16283997  0.87571669     1.02700
O2256       O  0.97216026  0.10630543  0.87183395    -0.85200
O2257       O  0.93027578  0.09438795  0.81894514    -0.82300
C2258       C  0.92325689  0.09229613  0.79148764     0.98300
O2259       O  0.94210206  0.10822403  0.77345504    -0.82300
O2260       O  0.53190103  0.09146798  0.77563120    -0.84900
C2261       C  0.56923145  0.08669942  0.78733699     1.02800
O2262       O  0.58457852  0.10219222  0.80724700    -0.77700
O2263       O  0.53680647  0.09036356  0.85705487    -0.77900
C2264       C  0.50469428  0.08974303  0.87477245     1.02700
Cr2265     Cr  0.95115938  0.12863720  0.83728378     1.93700
Cr2266     Cr  0.50234653  0.12756375  0.77828676     1.93200
Cr2267     Cr  0.55288834  0.12490851  0.83756116     1.39100
O2268       O  0.50227428  0.12683184  0.81772893    -1.22900
C2269       C  0.99828245  0.22210378  0.98671594     0.02400
C2270       C  0.95683804  0.23239322  0.99688204     0.02400
C2271       C  0.95451123  0.25383616  0.52053657     0.02400
C2272       C  0.49454318  0.26409416  0.53057336     0.02400
C2273       C  0.53607121  0.25573775  0.51865966     0.02400
C2274       C  0.53886579  0.23291059  0.99799486     0.02400
O2275       O  0.54089949  0.40832748  0.64421445    -0.85200
O2276       O  0.58543770  0.39243802  0.69504852    -0.82200
C2277       C  0.57313053  0.41045383  0.71326413     0.98300
O2278       O  0.53468081  0.41017170  0.72413555    -0.82300
O2279       O  0.94420391  0.40180441  0.72709555    -0.84900
C2280       C  0.93006596  0.41996367  0.70938183     1.02800
O2281       O  0.93702191  0.41731709  0.68202757    -0.77700
O2282       O  0.97501953  0.40094702  0.62975801    -0.77900
C2283       C  0.50891222  0.41207350  0.62649212     1.02700
O2284       O  0.52336499  0.35303305  0.63022713    -0.85200
O2285       O  0.56072338  0.33699009  0.68334995    -0.82300
C2286       C  0.56734448  0.33472724  0.71085624     0.98300
O2287       O  0.55124301  0.35233633  0.72840342    -0.82300
O2288       O  0.96050817  0.34391605  0.72367841    -0.84900
C2289       C  0.92255536  0.34350044  0.71181821     1.02800
O2290       O  0.91075840  0.36157444  0.69335638    -0.77700
O2291       O  0.95595023  0.34598821  0.64329924    -0.77900
C2292       C  0.48765072  0.34001887  0.62735602     1.02700
Cr2293     Cr  0.54873558  0.37292272  0.66480411     1.93700
Cr2294     Cr  0.49782055  0.37698815  0.72329032     1.93200
Cr2295     Cr  0.94838754  0.38124868  0.66383624     1.39100
O2296       O  0.49796820  0.37647349  0.68400089    -1.22900
C2297       C  0.74363377  0.02275462  0.76884835     0.02400
C2298       C  0.70482476  0.00999826  0.75812946     0.02400
C2299       C  0.70987735  0.48831067  0.73858779     0.02400
C2300       C  0.75209582  0.48213783  0.72644567     0.02400
C2301       C  0.79073322  0.49489572  0.73781016     0.02400
C2302       C  0.78557997  0.01700172  0.75632100     0.02400
O2303       O  0.76886752  0.35303423  0.62419526    -0.85200
O2304       O  0.80833811  0.33549725  0.57301427    -0.82200
C2305       C  0.81602046  0.33188381  0.54591882     0.98300
O2306       O  0.80061696  0.34851720  0.52685909    -0.82300
O2307       O  0.70998866  0.33987518  0.52764164    -0.84900
C2308       C  0.67119177  0.33879196  0.53811274     1.02800
O2309       O  0.65838352  0.35663187  0.55657896    -0.77700
O2310       O  0.70307663  0.34142604  0.60756279    -0.77900
C2311       C  0.73388415  0.33910980  0.62632961     1.02700
O2312       O  0.78668991  0.40768284  0.60729281    -0.85200
O2313       O  0.83402724  0.39036444  0.55910636    -0.82300
C2314       C  0.82229270  0.40809494  0.54026533     0.98300
O2315       O  0.78424996  0.40706524  0.52847191    -0.82300
O2316       O  0.69443347  0.39858986  0.52428668    -0.84900
C2317       C  0.67927749  0.41614624  0.54230577     1.02800
O2318       O  0.68335061  0.41247428  0.56967033    -0.77700
O2319       O  0.71954220  0.39754488  0.62208650    -0.77900
C2320       C  0.75489208  0.41114621  0.62483268     1.02700
Cr2321     Cr  0.79580657  0.37171130  0.58921729     1.93700
Cr2322     Cr  0.74718034  0.37350209  0.52953252     1.93200
Cr2323     Cr  0.69472412  0.37677174  0.58739910     1.39100
O2324       O  0.74586396  0.37391578  0.56867631    -1.22900
C2325       C  0.75719892  0.23167205  0.77300840     0.02400
C2326       C  0.79574758  0.24238370  0.75929836     0.02400
C2327       C  0.79107382  0.26212088  0.73668731     0.02400
C2328       C  0.74814426  0.27043178  0.72778613     0.02400
C2329       C  0.71042167  0.26239829  0.74383845     0.02400
C2330       C  0.71431224  0.24158569  0.76510110     0.02400
O2331       O  0.71180480  0.09192675  0.88982352    -0.85200
O2332       O  0.66466191  0.10435155  0.93864370    -0.82200
C2333       C  0.67792213  0.08564075  0.95591374     0.98300
O2334       O  0.71576349  0.08671123  0.96781878    -0.82300
O2335       O  0.80455203  0.09751659  0.97338817    -0.84900
C2336       C  0.82098193  0.08104320  0.95478676     1.02800
O2337       O  0.81565793  0.08514179  0.92750102    -0.77700
O2338       O  0.77889796  0.10304707  0.87568220    -0.77900
C2339       C  0.74406441  0.08916840  0.87261400     1.02700
O2340       O  0.72681516  0.14804443  0.87704950    -0.85200
O2341       O  0.68640219  0.16132634  0.92992875    -0.82300
C2342       C  0.67867004  0.16197019  0.95730172     0.98300
O2343       O  0.69481227  0.14373111  0.97418595    -0.82300
O2344       O  0.78418939  0.15465914  0.97393371    -0.84900
C2345       C  0.82233481  0.15721768  0.96297870     1.02800
O2346       O  0.83653508  0.14084629  0.94349716    -0.77700
O2347       O  0.79338506  0.15821170  0.89336691    -0.77900
C2348       C  0.76193583  0.16191706  0.87529899     1.02700
Cr2349     Cr  0.70107112  0.12639113  0.91041960     1.93700
Cr2350     Cr  0.74990742  0.12085076  0.96955688     1.93200
Cr2351     Cr  0.80244664  0.12186204  0.91159467     1.39100
O2352       O  0.75122306  0.12325237  0.93048408    -1.22900
C2353       C  0.76559084  0.22469255  0.82686129    -0.12100
C2354       C  0.76196560  0.21298648  0.79867332     0.04900
C2355       C  0.76332251  0.18442572  0.79587065    -0.07400
C2356       C  0.76535105  0.16828233  0.82138869    -0.08100
C2357       C  0.76718715  0.18004441  0.84966290    -0.02700
C2358       C  0.76894967  0.20855042  0.85236936     0.04100
N2359       N  0.77337582  0.22143264  0.88063360     0.66600
H2360       H  0.76564212  0.24666751  0.82900453     0.15500
H2361       H  0.76484078  0.14632126  0.81915599     0.15200
N2362       N  0.76241585  0.17138086  0.76759288     0.74300
O2363       O  0.80842494  0.21766983  0.89547630    -0.39100
O2364       O  0.74842595  0.24125344  0.88713625    -0.39100
O2365       O  0.79705086  0.15941102  0.75873668    -0.39800
O2366       O  0.72557489  0.16409776  0.75703012    -0.39800
C2367       C  0.72926091  0.29335103  0.64858939    -0.12100
C2368       C  0.72892799  0.32160888  0.65224334     0.04900
C2369       C  0.73059179  0.33295901  0.68096635    -0.07400
C2370       C  0.73978135  0.31593733  0.70501332    -0.08100
C2371       C  0.74245200  0.28777213  0.70132784    -0.02700
C2372       C  0.73484757  0.27622754  0.67312602     0.04100
N2373       N  0.73181245  0.24735382  0.66919137     0.66600
H2374       H  0.72665483  0.28463299  0.62659716     0.15500
H2375       H  0.74298925  0.32456282  0.72689798     0.15200
N2376       N  0.71968922  0.36111644  0.68619244     0.74300
O2377       O  0.76455521  0.23210564  0.67508668    -0.39100
O2378       O  0.69779385  0.23732764  0.65707963    -0.39100
O2379       O  0.68944857  0.37237687  0.67099340    -0.39800
O2380       O  0.73196876  0.37251069  0.70989040    -0.39800
C2381       C  0.77817028  0.43958116  0.70094205    -0.12100
C2382       C  0.75489052  0.46440151  0.69967131     0.04900
C2383       C  0.73417480  0.47224238  0.67272284    -0.07400
C2384       C  0.73504913  0.45434041  0.64865419    -0.08100
C2385       C  0.75924017  0.43004676  0.64977489    -0.02700
C2386       C  0.78300693  0.42303292  0.67582948     0.04100
N2387       N  0.81184808  0.39948671  0.67734359     0.66600
H2388       H  0.79349412  0.43325796  0.72148633     0.15500
H2389       H  0.71764415  0.45966901  0.62852521     0.15200
N2390       N  0.71292331  0.49835294  0.66919555     0.74300
O2391       O  0.83404585  0.39224775  0.65502023    -0.39100
O2392       O  0.82122216  0.38886533  0.70210687    -0.39100
O2393       O  0.73158704  0.51954596  0.67872245    -0.39800
O2394       O  0.67903310  0.50079667  0.65278607    -0.39800
C2395       C  0.76136161  0.04615795  0.84769623    -0.12100
C2396       C  0.73988424  0.07138589  0.84716029     0.04900
C2397       C  0.71755031  0.08040628  0.82145731    -0.07400
C2398       C  0.72085523  0.06491887  0.79562598    -0.08100
C2399       C  0.74166129  0.03932736  0.79612970    -0.02700
C2400       C  0.76071247  0.02939673  0.82276929     0.04100
N2401       N  0.77787163  0.00212620  0.82507462     0.66600
H2402       H  0.77725223  0.03916400  0.86788032     0.15500
H2403       H  0.70575077  0.07237483  0.77537055     0.15200
N2404       N  0.69111508  0.10488172  0.82147298     0.74300
O2405       O  0.81486149  0.49954972  0.84155375    -0.39100
O2406       O  0.75712292  0.48312537  0.81887201    -0.39100
O2407       O  0.68971446  0.11991620  0.79880411    -0.39800
O2408       O  0.66380441  0.10918272  0.84211404    -0.39800
C2409       C  0.62252707  0.31814720  0.74817008    -0.12100
C2410       C  0.59763690  0.31304040  0.72238353     0.04900
C2411       C  0.60590110  0.28872597  0.70655430    -0.07400
C2412       C  0.64069859  0.27132256  0.71528801    -0.08100
C2413       C  0.66792585  0.27768360  0.73952321    -0.02700
C2414       C  0.65787623  0.30103317  0.75671210     0.04100
N2415       N  0.68448253  0.30863799  0.78185215     0.66600
H2416       H  0.61672653  0.33668080  0.76061004     0.15500
H2417       H  0.64757829  0.25322740  0.70240062     0.15200
N2418       N  0.57946606  0.28149267  0.68143419     0.74300
O2419       O  0.66579637  0.31649297  0.80534571    -0.39100
O2420       O  0.72544346  0.31289792  0.77880663    -0.39100
O2421       O  0.59724864  0.27926828  0.65628036    -0.39800
O2422       O  0.54027115  0.27330074  0.68519041    -0.39800
C2423       C  0.88687137  0.29987970  0.69970579    -0.12100
C2424       C  0.89139970  0.32180662  0.71928352     0.04900
C2425       C  0.86335063  0.32380115  0.74398533    -0.07400
C2426       C  0.83208994  0.30348472  0.74899681    -0.08100
C2427       C  0.82840482  0.28085916  0.73024878    -0.02700
C2428       C  0.85546895  0.27945186  0.70476228     0.04100
N2429       N  0.85037729  0.25857517  0.68302186     0.66600
H2430       H  0.90740525  0.29886593  0.68005648     0.15500
H2431       H  0.81004444  0.30544144  0.76777558     0.15200
N2432       N  0.86493340  0.34672507  0.76353177     0.74300
O2433       O  0.86885096  0.23581589  0.68734899    -0.39100
O2434       O  0.84037924  0.26531825  0.65681409    -0.39100
O2435       O  0.82931047  0.35832625  0.77131249    -0.39800
O2436       O  0.90082903  0.35279611  0.77638548    -0.39800
C2437       C  0.89189926  0.46480650  0.70038933    -0.12100
C2438       C  0.90221819  0.44325400  0.72005896     0.04900
C2439       C  0.88189453  0.44323838  0.74835524    -0.07400
C2440       C  0.84767176  0.46186736  0.75434719    -0.08100
C2441       C  0.83466693  0.48153798  0.73351736    -0.02700
C2442       C  0.85914978  0.48427406  0.70732990     0.04100
N2443       N  0.84497617  0.00403121  0.68200542     0.66600
H2444       H  0.90853957  0.46621166  0.67921604     0.15500
H2445       H  0.82945080  0.46015151  0.77492210     0.15200
N2446       N  0.89406347  0.42397640  0.77087285     0.74300
O2447       O  0.85339570  0.02864553  0.68745393    -0.39100
O2448       O  0.83354663  0.99719491  0.65613721    -0.39100
O2449       O  0.93305293  0.42411011  0.78127022    -0.39800
O2450       O  0.86414594  0.41163396  0.78489773    -0.39800
C2451       C  0.64011829  0.42445612  0.74070561    -0.12100
C2452       C  0.60476308  0.43151046  0.72196781     0.04900
C2453       C  0.60297912  0.45758734  0.70904908    -0.07400
C2454       C  0.63700359  0.47619632  0.71486315    -0.08100
C2455       C  0.67251666  0.46920392  0.73369921    -0.02700
C2456       C  0.67359559  0.44316943  0.74701343     0.04100
N2457       N  0.70841837  0.43550117  0.76710389     0.66600
H2458       H  0.64180480  0.40426727  0.75037917     0.15500
H2459       H  0.63589414  0.49596574  0.70435552     0.15200
N2460       N  0.56799423  0.46485118  0.68888415     0.74300
O2461       O  0.70575465  0.44245859  0.79391184    -0.39100
O2462       O  0.73516156  0.41676153  0.76004520    -0.39100
O2463       O  0.52820256  0.46541445  0.69753598    -0.39800
O2464       O  0.57681693  0.47064138  0.66231785    -0.39800
C2465       C  0.62164101  0.17451569  0.99394961    -0.12100
C2466       C  0.64712633  0.18224871  0.96957286     0.04900
C2467       C  0.64048468  0.20834476  0.95718855    -0.07400
C2468       C  0.60582201  0.22640214  0.46951306    -0.08100
C2469       C  0.57990472  0.21706027  0.99163734    -0.02700
C2470       C  0.58792567  0.19129306  0.00521857     0.04100
N2471       N  0.56225567  0.18140289  0.02993071     0.66600
H2472       H  0.62714749  0.15463852  0.00374524     0.15500
H2473       H  0.60047560  0.24609595  0.45921816     0.15200
N2474       N  0.66688505  0.21857142  0.43525150     0.74300
O2475       O  0.56498077  0.15675258  0.03775827    -0.39100
O2476       O  0.53749531  0.19706977  0.04462535    -0.39100
O2477       O  0.65412491  0.21660648  0.40866945    -0.39800
O2478       O  0.69977596  0.23327500  0.44153686    -0.39800
C2479       C  0.89337973  0.20288507  0.51158783    -0.12100
C2480       C  0.91480541  0.21852628  0.98835575     0.04900
C2481       C  0.89897329  0.21716253  0.95881904    -0.07400
C2482       C  0.86916503  0.19654417  0.95113551    -0.08100
C2483       C  0.85119605  0.17939279  0.97264645    -0.02700
C2484       C  0.86069389  0.18392567  0.50429594     0.04100
N2485       N  0.84500597  0.16573133  0.52659507     0.66600
H2486       H  0.90789039  0.20205600  0.53344719     0.15500
H2487       H  0.86010357  0.19363763  0.92818603     0.15200
N2488       N  0.91346769  0.23578394  0.93639903     0.74300
O2489       O  0.85978020  0.14165124  0.52774021    -0.39100
O2490       O  0.82156139  0.17477633  0.54754399    -0.39100
O2491       O  0.91260789  0.26099274  0.94147891    -0.39800
O2492       O  0.91770253  0.22780442  0.90997024    -0.39800
C2493       C  0.64819506  0.28984044  0.53876911    -0.12100
C2494       C  0.64013761  0.31662839  0.52902879     0.04900
C2495       C  0.60049726  0.32214229  0.51318229    -0.07400
C2496       C  0.56865861  0.30148771  0.50974543    -0.08100
C2497       C  0.57486559  0.27510889  0.52140996    -0.02700
C2498       C  0.61633876  0.26903817  0.53509843     0.04100
N2499       N  0.62669592  0.24238376  0.54607530     0.66600
H2500       H  0.67877509  0.28532283  0.55061062     0.15500
H2501       H  0.53832013  0.30603842  0.49765884     0.15200
N2502       N  0.59262257  0.34822995  0.49960240     0.74300
O2503       O  0.66479955  0.23226432  0.54184386    -0.39100
O2504       O  0.60070540  0.23077087  0.56374616    -0.39100
O2505       O  0.63122761  0.35691245  0.98241532    -0.39800
O2506       O  0.55341850  0.35700199  0.49610808    -0.39800
C2507       C  0.90007366  0.28851581  0.50443726    -0.12100
C2508       C  0.91280717  0.26958815  0.52622404     0.04900
C2509       C  0.89059042  0.26993914  0.55376359    -0.07400
C2510       C  0.85753563  0.28956144  0.55888240    -0.08100
C2511       C  0.84591080  0.30908987  0.53732708    -0.02700
C2512       C  0.86652774  0.30774347  0.50938089     0.04100
N2513       N  0.85628592  0.32688355  0.48645406     0.66600
H2514       H  0.91911350  0.28996171  0.48428375     0.15500
H2515       H  0.83829787  0.28714262  0.07620073     0.15200
N2516       N  0.89693985  0.24800948  0.07331084     0.74300
O2517       O  0.87815974  0.34861624  0.48460801    -0.39100
O2518       O  0.83149839  0.31988063  0.46520272    -0.39100
O2519       O  0.90942219  0.25635807  0.09842010    -0.39800
O2520       O  0.87660084  0.22570591  0.07204083    -0.39800
C2521       C  0.50006267  0.29391706  0.60831453    -0.12100
C2522       C  0.48469542  0.32035079  0.60321519     0.04900
C2523       C  0.97479369  0.32949650  0.57378406    -0.07400
C2524       C  0.98024837  0.31081530  0.55066020    -0.08100
C2525       C  0.49317527  0.28359697  0.55580621    -0.02700
C2526       C  0.50355970  0.27519482  0.58507512     0.04100
N2527       N  0.51521040  0.24754880  0.59194514     0.66600
H2528       H  0.50867642  0.28771676  0.63065631     0.15500
H2529       H  0.97153629  0.31684812  0.52828360     0.15200
N2530       N  0.95673133  0.35598904  0.56755332     0.74300
O2531       O  0.54367452  0.24258942  0.61190837    -0.39100
O2532       O  0.49043552  0.22856462  0.58321103    -0.39100
O2533       O  0.96954001  0.36904351  0.54510198    -0.39800
O2534       O  0.92330723  0.36444740  0.58168354    -0.39800
C2535       C  0.62089839  0.20497587  0.80507542    -0.12100
C2536       C  0.60899041  0.18537135  0.78378508     0.04900
C2537       C  0.62783506  0.18718214  0.75516174    -0.07400
C2538       C  0.66055894  0.20669288  0.74966774    -0.08100
C2539       C  0.67453787  0.22486417  0.77168821    -0.02700
C2540       C  0.65261403  0.22488359  0.79915325     0.04100
N2541       N  0.65904268  0.24601833  0.82036891     0.66600
H2542       H  0.60523072  0.20506034  0.82664401     0.15500
H2543       H  0.67637956  0.20713557  0.72813643     0.15200
N2544       N  0.61554161  0.16912597  0.73164853     0.74300
O2545       O  0.63331797  0.26634476  0.81909555    -0.39100
O2546       O  0.67632281  0.24003697  0.84504230    -0.39100
O2547       O  0.57642744  0.16996967  0.72149853    -0.39800
O2548       O  0.64550375  0.15775804  0.71648720    -0.39800
C2549       C  0.89653111  0.21172944  0.79803844    -0.12100
C2550       C  0.90704742  0.19081981  0.77816707     0.04900
C2551       C  0.88660619  0.19026453  0.75017537    -0.07400
C2552       C  0.85179549  0.20839450  0.74395829    -0.08100
C2553       C  0.83946255  0.22866878  0.76427104    -0.02700
C2554       C  0.86424180  0.23142614  0.79083086     0.04100
N2555       N  0.85753887  0.25397056  0.81045074     0.66600
H2556       H  0.91354065  0.21269252  0.81923545     0.15500
H2557       H  0.83237397  0.20551078  0.72395575     0.15200
N2558       N  0.89873260  0.17016067  0.72875615     0.74300
O2559       O  0.85644830  0.24993899  0.83806096    -0.39100
O2560       O  0.86551254  0.27763758  0.80121883    -0.39100
O2561       O  0.88024655  0.14721475  0.72875497    -0.39800
O2562       O  0.92968495  0.17486267  0.71076276    -0.39800
C2563       C  0.85670406  0.08060570  0.76142792    -0.12100
C2564       C  0.89085703  0.07209844  0.78057282     0.04900
C2565       C  0.89160488  0.04492799  0.79064523    -0.07400
C2566       C  0.85799932  0.02696929  0.78191421    -0.08100
C2567       C  0.82362644  0.03545798  0.76288643    -0.02700
C2568       C  0.82321919  0.06263997  0.75246641     0.04100
N2569       N  0.78850495  0.07246013  0.73330258     0.66600
H2570       H  0.85544994  0.10151657  0.75391238     0.15500
H2571       H  0.86104730  0.50487826  0.79088037     0.15200
N2572       N  0.92668129  0.03518704  0.80940655     0.74300
O2573       O  0.76863550  0.09449269  0.73919802    -0.39100
O2574       O  0.78179215  0.06119149  0.70859219    -0.39100
O2575       O  0.91772073  0.02475069  0.83420130    -0.39800
O2576       O  0.96577922  0.03362789  0.79956171    -0.39800
C2577       C  0.64611856  0.04209416  0.74218603    -0.12100
C2578       C  0.66082906  0.02328724  0.76360214     0.04900
C2579       C  0.64005558  0.02315213  0.79162647    -0.07400
C2580       C  0.60866128  0.04342958  0.79853970    -0.08100
C2581       C  0.59632881  0.06324726  0.77764795    -0.02700
C2582       C  0.61398680  0.06185574  0.74889311     0.04100
N2583       N  0.60412296  0.08248438  0.72753407     0.66600
H2584       H  0.66252977  0.04296568  0.72087970     0.15500
H2585       H  0.59456198  0.04412307  0.82058740     0.15200
N2586       N  0.65148810  0.00325956  0.81353132     0.74300
O2587       O  0.63180058  0.10120832  0.72327686    -0.39100
O2588       O  0.57348278  0.07872890  0.70884945    -0.39100
O2589       O  0.66077419  0.01074351  0.83957398    -0.39800
O2590       O  0.64137500  0.97876461  0.80895922    -0.39800
C2591       C  0.51347665  0.21905695  0.93226040    -0.12100
C2592       C  0.49898884  0.20618329  0.95839408     0.04900
C2593       C  0.98360703  0.17813712  0.95656333    -0.07400
C2594       C  0.98253509  0.16568862  0.92847367    -0.08100
C2595       C  0.49669521  0.17906634  0.90305505    -0.02700
C2596       C  0.51216343  0.20586283  0.90471870     0.04100
N2597       N  0.52500885  0.22020628  0.87854486     0.66600
H2598       H  0.52433988  0.24002470  0.93313217     0.15500
H2599       H  0.96982453  0.14521079  0.92626168     0.15200
N2600       N  0.96723083  0.16304177  0.98163425     0.74300
O2601       O  0.49693405  0.22438838  0.85814831    -0.39100
O2602       O  0.56231621  0.23168435  0.87742050    -0.39100
O2603       O  0.94365355  0.14217435  0.97772395    -0.39800
O2604       O  0.97789015  0.16939277  0.00772272    -0.39800
C2605       C  0.87497077  0.06293001  0.99096958    -0.12100
C2606       C  0.85027620  0.05865892  0.96513669     0.04900
C2607       C  0.85776464  0.03463163  0.94858352    -0.07400
C2608       C  0.89128369  0.01624007  0.95736292    -0.08100
C2609       C  0.91813628  0.02177210  0.98201147    -0.02700
C2610       C  0.90609452  0.04522959  0.49948064     0.04100
N2611       N  0.93242663  0.05173190  0.52481629     0.66600
H2612       H  0.86697581  0.08130350  0.50472623     0.15500
H2613       H  0.89760544  0.99823015  0.94421279     0.15200
N2614       N  0.83237636  0.02892157  0.92254548     0.74300
O2615       O  0.91792313  0.04548930  0.55005974    -0.39100
O2616       O  0.95857019  0.56942013  0.52535526    -0.39100
O2617       O  0.85148517  0.02736050  0.89777458    -0.39800
O2618       O  0.79253205  0.02147190  0.92490863    -0.39800
C2619       C  0.63214903  0.06247250  0.99301192    -0.12100
C2620       C  0.64759340  0.06360454  0.96395954     0.04900
C2621       C  0.63161457  0.04492148  0.94286352    -0.07400
C2622       C  0.59902466  0.02608245  0.95092028    -0.08100
C2623       C  0.58137091  0.02602686  0.97969041    -0.02700
C2624       C  0.59801708  0.04283813  0.49916865     0.04100
N2625       N  0.57971982  0.04473852  0.52820556     0.66600
H2626       H  0.64394294  0.07506324  0.50820566     0.15500
H2627       H  0.58600028  0.01231840  0.93434264     0.15200
N2628       N  0.64824445  0.04487824  0.91327253     0.74300
O2629       O  0.60506458  0.04183782  0.55035863    -0.39100
O2630       O  0.54358598  0.05746716  0.53140844    -0.39100
O2631       O  0.68251610  0.03109935  0.90716505    -0.39800
O2632       O  0.62539459  0.05528951  0.89261517    -0.39800
C2633       C  0.51016900  0.06322842  0.95304505    -0.12100
C2634       C  0.49730499  0.03616863  0.94897763     0.04900
C2635       C  0.98786087  0.02685183  0.92005646    -0.07400
C2636       C  0.99022470  0.04473465  0.89596848    -0.08100
C2637       C  0.50545874  0.07115732  0.90008851    -0.02700
C2638       C  0.51715351  0.08035915  0.92874090     0.04100
N2639       N  0.53943003  0.10584709  0.93325974     0.66600
H2640       H  0.51857250  0.07020221  0.97509857     0.15500
H2641       H  0.98202181  0.03758041  0.87392911     0.15200
N2642       N  0.97868092  0.99871577  0.91456515     0.74300
O2643       O  0.53776175  0.11744367  0.95819414    -0.39100
O2644       O  0.56820669  0.11358612  0.91491546    -0.39100
O2645       O  0.94858557  0.99223505  0.89637157    -0.39800
O2646       O  0.00618375  0.98080253  0.92295875    -0.39800
C2647       C  0.88627394  0.47460090  0.53357141    -0.12100
C2648       C  0.92120278  0.46672124  0.51484867     0.04900
C2649       C  0.92168558  0.43983474  0.50356366    -0.07400
C2650       C  0.88905868  0.42123763  0.51208536    -0.08100
C2651       C  0.85462531  0.42895773  0.53097292    -0.02700
C2652       C  0.85306422  0.45595041  0.54164918     0.04100
N2653       N  0.81939744  0.46423258  0.56198842     0.66600
H2654       H  0.88844053  0.99439204  0.54358267     0.15500
H2655       H  0.89030115  0.40064141  0.50358011     0.15200
N2656       N  0.95448328  0.43133841  0.48265035     0.74300
O2657       O  0.82513127  0.46033377  0.58938416    -0.39100
O2658       O  0.78804286  0.47944019  0.55323847    -0.39100
O2659       O  0.97448446  0.40888329  0.48611634    -0.38200
O2660       O  0.95655235  0.44330202  0.45796899    -0.39800
C2661       C  0.63722967  0.43989721  0.50245476    -0.12100
C2662       C  0.65288272  0.43976579  0.53170336     0.04900
C2663       C  0.63822273  0.46049637  0.55123204    -0.07400
C2664       C  0.60362971  0.47790797  0.54275749    -0.08100
C2665       C  0.58447368  0.47573934  0.51465796    -0.02700
C2666       C  0.60341483  0.45779573  0.49373274     0.04100
N2667       N  0.58503289  0.45500446  0.46469346     0.66600
H2668       H  0.64860124  0.42464146  0.48685355     0.15500
H2669       H  0.58699783  0.99058389  0.55640282     0.15200
N2670       N  0.65784480  0.46415890  0.57975496     0.74300
O2671       O  0.55316028  0.44332824  0.95853859    -0.39100
O2672       O  0.60924472  0.45942986  0.44249028    -0.39100
O2673       O  0.68968815  0.48055207  0.58231089    -0.39800
O2674       O  0.63674427  0.45704781  0.60254954    -0.39800
C2675       C  0.52717876  0.43566818  0.54810226    -0.12100
C2676       C  0.50390832  0.46054621  0.54788751     0.04900
C2677       C  0.99006635  0.47180882  0.57585402    -0.07400
C2678       C  0.99399074  0.45613379  0.60162418    -0.08100
C2679       C  0.51312273  0.43009753  0.60072670    -0.02700
C2680       C  0.53450486  0.42121226  0.57461371     0.04100
N2681       N  0.56371620  0.39786748  0.57462267     0.66600
H2682       H  0.54162535  0.42820737  0.52774246     0.15500
H2683       H  0.98014313  0.46366270  0.62221097     0.15200
N2684       N  0.97257940  0.49890838  0.57806582     0.74300
O2685       O  0.57068555  0.38500188  0.55091002    -0.39100
O2686       O  0.58830880  0.39290678  0.59672961    -0.39100
O2687       O  0.93963032  0.50363959  0.59452683    -0.39800
O2688       O  0.99531124  0.51859610  0.56875552    -0.39800
C2689       C  0.50430389  0.97702516  0.01893633     0.02400
C2690       C  0.54362821  0.98833035  0.00713027     0.02400
C2691       C  0.53872845  0.51009383  0.48768928     0.02400
C2692       C  0.99604346  0.51792867  0.47640499     0.02400
C2693       C  0.95687505  0.50663286  0.48847262     0.02400
C2694       C  0.96297432  0.98464359  0.00703958     0.02400
O2695       O  0.96677811  0.66269804  0.35839724    -0.85200
O2696       O  0.91984015  0.65112945  0.30751755    -0.82200
C2697       C  0.93559344  0.66778679  0.28905805     0.98300
O2698       O  0.97383344  0.66428594  0.27850080    -0.82300
O2699       O  0.56077757  0.64756236  0.27420605    -0.84900
C2700       C  0.57924578  0.66307208  0.29289656     1.02800
O2701       O  0.57351639  0.65914323  0.32016563    -0.77700
O2702       O  0.53243585  0.64698644  0.37207447    -0.77900
C2703       C  0.49985583  0.66306303  0.37534874     1.02700
O2704       O  0.97154904  0.60658420  0.37298247    -0.85200
O2705       O  0.93273863  0.59382462  0.31919730    -0.82300
C2706       C  0.92646429  0.59190216  0.29164220     0.98300
O2707       O  0.94511911  0.60832659  0.27399544    -0.82300
O2708       O  0.53200473  0.59157230  0.27505661    -0.84900
C2709       C  0.56914282  0.58652858  0.28695331     1.02800
O2710       O  0.58427876  0.60175094  0.30718337    -0.77700
O2711       O  0.53630574  0.59027555  0.35723262    -0.77900
C2712       C  0.50410617  0.58983253  0.37494160     1.02700
Cr2713     Cr  0.95164096  0.62836724  0.33779601     1.93700
Cr2714     Cr  0.50255741  0.62778759  0.27803037     1.93200
Cr2715     Cr  0.55296020  0.62472837  0.33741867     1.39100
O2716       O  0.50242885  0.62690914  0.31751743    -1.22900
C2717       C  0.99610705  0.72310433  0.48700776     0.02400
C2718       C  0.95515432  0.73382216  0.49746136     0.02400
C2719       C  0.95716181  0.75314441  0.01915491     0.02400
C2720       C  0.49838970  0.76328655  0.03146185     0.02400
C2721       C  0.53969968  0.75468209  0.01952653     0.02400
C2722       C  0.53622796  0.73277756  0.49852330     0.02400
O2723       O  0.54331970  0.90978480  0.14366400    -0.85200
O2724       O  0.58732372  0.89311077  0.19431037    -0.82200
C2725       C  0.57505562  0.91138067  0.21220776     0.98300
O2726       O  0.53641911  0.91142789  0.22273674    -0.82300
O2727       O  0.94603442  0.90269257  0.22535859    -0.84900
C2728       C  0.93136676  0.92031061  0.20719918     1.02800
O2729       O  0.93776116  0.91689068  0.17986839    -0.77700
O2730       O  0.97614207  0.89959692  0.12795913    -0.77900
C2731       C  0.51180418  0.91342176  0.12559273     1.02700
O2732       O  0.52531425  0.85485705  0.12869272    -0.85200
O2733       O  0.56172295  0.83809275  0.18177134    -0.82300
C2734       C  0.56848947  0.83564190  0.20922225     0.98300
O2735       O  0.55231408  0.85317190  0.22694386    -0.82300
O2736       O  0.96264773  0.84466802  0.22369910    -0.84900
C2737       C  0.92465749  0.84359543  0.21191083     1.02800
O2738       O  0.91258126  0.86106124  0.19280672    -0.77700
O2739       O  0.95783910  0.84470901  0.14290284    -0.77900
C2740       C  0.48979629  0.84168168  0.12577649     1.02700
Cr2741     Cr  0.55049214  0.87421004  0.16369681     1.93700
Cr2742     Cr  0.49917349  0.87841185  0.22193631     1.93200
Cr2743     Cr  0.94981383  0.88040698  0.16261756     1.39100
O2744       O  0.49952313  0.87786004  0.18269649    -1.22900
C2745       C  0.74622529  0.52356089  0.26889962     0.02400
C2746       C  0.70723200  0.51090396  0.25813931     0.02400
C2747       C  0.71181504  0.98916175  0.23805212     0.02400
C2748       C  0.75381286  0.98285650  0.22549065     0.02400
C2749       C  0.79272489  0.99578240  0.23640244     0.02400
C2750       C  0.78825278  0.51704621  0.25672974     0.02400
O2751       O  0.77380978  0.85292916  0.12305690    -0.85200
O2752       O  0.81334336  0.83597907  0.07159114    -0.82200
C2753       C  0.82030457  0.83230441  0.04439147     0.98300
O2754       O  0.80417025  0.84877731  0.02542576    -0.82300
O2755       O  0.71377815  0.83918094  0.02680131    -0.84900
C2756       C  0.67524002  0.83760135  0.03761466     1.02800
O2757       O  0.66220593  0.85528490  0.05617549    -0.77700
O2758       O  0.70832378  0.84044535  0.10666248    -0.77900
C2759       C  0.73946733  0.83841916  0.12521495     1.02700
O2760       O  0.78925397  0.90797712  0.10618970    -0.85200
O2761       O  0.83676966  0.89110707  0.05764470    -0.82300
C2762       C  0.82446458  0.90854964  0.03865423     0.98300
O2763       O  0.78623182  0.90720241  0.02718407    -0.82300
O2764       O  0.69658573  0.89779700  0.02368342    -0.84900
C2765       C  0.68115019  0.91515541  0.04183020     1.02800
O2766       O  0.68546180  0.91138374  0.06917904    -0.77700
O2767       O  0.72283244  0.89678706  0.12147336    -0.77900
C2768       C  0.75755331  0.91104430  0.12394163     1.02700
Cr2769     Cr  0.79958624  0.87204565  0.08796851     1.93700
Cr2770     Cr  0.75008090  0.87323329  0.02852815     1.93200
Cr2771     Cr  0.69836370  0.87577423  0.08677345     1.39100
O2772       O  0.74932218  0.87360697  0.06770199    -1.22900
C2773       C  0.75681502  0.73197967  0.27337893     0.02400
C2774       C  0.79597425  0.74226407  0.25994321     0.02400
C2775       C  0.79245384  0.76201377  0.23726002     0.02400
C2776       C  0.74976071  0.77019637  0.22747865     0.02400
C2777       C  0.71120709  0.76240625  0.24291485     0.02400
C2778       C  0.71419738  0.74184950  0.26458998     0.02400
O2779       O  0.71143313  0.59238233  0.39053079    -0.85200
O2780       O  0.66365423  0.60406638  0.43967108    -0.82200
C2781       C  0.67699248  0.58563446  0.45728561     0.98300
O2782       O  0.71478349  0.58701573  0.46925481    -0.82300
O2783       O  0.80340502  0.59849422  0.47469826    -0.84900
C2784       C  0.81996929  0.58214759  0.45603853     1.02800
O2785       O  0.81526519  0.58656399  0.42874136    -0.77700
O2786       O  0.77835164  0.60429769  0.37680702    -0.77900
C2787       C  0.74394426  0.59006793  0.37338250     1.02700
O2788       O  0.72483643  0.64876295  0.37846028    -0.85200
O2789       O  0.68403647  0.66133826  0.43139520    -0.82300
C2790       C  0.67660062  0.66198370  0.45881479     0.98300
O2791       O  0.69296194  0.64382523  0.47566441    -0.82300
O2792       O  0.78207088  0.65554637  0.47554587    -0.84900
C2793       C  0.82013443  0.65854798  0.46459474     1.02800
O2794       O  0.83467666  0.64240003  0.44500900    -0.77700
O2795       O  0.79101673  0.65965879  0.39488203    -0.77900
C2796       C  0.75951782  0.66305023  0.37675404     1.02700
Cr2797     Cr  0.69964567  0.62662705  0.41162576     1.93700
Cr2798     Cr  0.74842479  0.62142800  0.47093895     1.93200
Cr2799     Cr  0.80111454  0.62323670  0.41295986     1.39100
O2800       O  0.74978378  0.62392209  0.43180617    -1.22900
C2801       C  0.76570633  0.72546498  0.32746454    -0.12100
C2802       C  0.76074902  0.71356626  0.29941263     0.04900
C2803       C  0.75962517  0.68498245  0.29706283    -0.07400
C2804       C  0.76105465  0.66908775  0.32276906    -0.08100
C2805       C  0.76441752  0.68102806  0.35088764    -0.02700
C2806       C  0.76806089  0.70949634  0.35319071     0.04100
N2807       N  0.77286139  0.72256766  0.38129144     0.66600
H2808       H  0.76718940  0.74743083  0.32937951     0.15500
H2809       H  0.75911254  0.64714500  0.32079113     0.15200
N2810       N  0.75690015  0.67163674  0.26901799     0.74300
O2811       O  0.80982886  0.72129345  0.39442947    -0.39100
O2812       O  0.74540117  0.74077174  0.38879224    -0.39100
O2813       O  0.79149000  0.66065249  0.25875428    -0.39800
O2814       O  0.71979762  0.66284152  0.26046813    -0.39800
C2815       C  0.73621324  0.79254844  0.14763049    -0.12100
C2816       C  0.73520064  0.82083865  0.15111332     0.04900
C2817       C  0.73545097  0.83233143  0.17974661    -0.07400
C2818       C  0.74203774  0.81547942  0.20423729    -0.08100
C2819       C  0.74533093  0.78732028  0.20080089    -0.02700
C2820       C  0.74037929  0.77559359  0.17242975     0.04100
N2821       N  0.73780938  0.74670049  0.16865120     0.66600
H2822       H  0.73483797  0.78368855  0.12565866     0.15500
H2823       H  0.74291694  0.82427602  0.22618658     0.15200
N2824       N  0.72609244  0.86069134  0.18434806     0.74300
O2825       O  0.77248414  0.73222798  0.17012556    -0.39100
O2826       O  0.70232236  0.73626054  0.15916872    -0.39100
O2827       O  0.69292406  0.87141674  0.17160276    -0.39800
O2828       O  0.74371593  0.87301415  0.20587213    -0.39800
C2829       C  0.78141895  0.94068088  0.19952261    -0.12100
C2830       C  0.75597533  0.96473571  0.19881820     0.04900
C2831       C  0.73287683  0.97156001  0.17234217    -0.07400
C2832       C  0.73385568  0.95336649  0.14850164    -0.08100
C2833       C  0.76115030  0.93033246  0.14874094    -0.02700
C2834       C  0.78739609  0.92464527  0.17409273     0.04100
N2835       N  0.82001697  0.90302941  0.17449790     0.66600
H2836       H  0.79800467  0.93472817  0.21985830     0.15500
H2837       H  0.71406608  0.95772230  0.12874673     0.15200
N2838       N  0.70935590  0.99697512  0.16903173     0.74300
O2839       O  0.84278390  0.89798161  0.15172892    -0.39100
O2840       O  0.83222118  0.89269757  0.19884387    -0.39100
O2841       O  0.72619884  0.01875102  0.17854294    -0.39800
O2842       O  0.67498119  0.99833147  0.15293212    -0.39800
C2843       C  0.76414822  0.54765916  0.34780965    -0.12100
C2844       C  0.74078294  0.57226249  0.34767495     0.04900
C2845       C  0.71758929  0.58074336  0.32209863    -0.07400
C2846       C  0.72199030  0.56557930  0.29602228    -0.08100
C2847       C  0.74436007  0.54041531  0.29620017    -0.02700
C2848       C  0.76421937  0.53088326  0.32281371     0.04100
N2849       N  0.78264283  0.50388996  0.32516147     0.66600
H2850       H  0.78069962  0.54101590  0.36786892     0.15500
H2851       H  0.70614820  0.57279617  0.27591081     0.15200
N2852       N  0.68882214  0.60419149  0.32260012     0.74300
O2853       O  0.81617559  0.00047143  0.34088627    -0.39100
O2854       O  0.75581416  0.98451845  0.32116309    -0.39100
O2855       O  0.68619150  0.61968380  0.30034975    -0.39800
O2856       O  0.66095080  0.60698240  0.34320666    -0.39800
C2857       C  0.62239356  0.81805077  0.24697940    -0.12100
C2858       C  0.59903492  0.81380710  0.22039393     0.04900
C2859       C  0.60898954  0.79022141  0.20365680    -0.07400
C2860       C  0.64313530  0.77247685  0.21278023    -0.08100
C2861       C  0.66894856  0.77802325  0.23794007    -0.02700
C2862       C  0.65773569  0.80089826  0.25564649     0.04100
N2863       N  0.68329543  0.80815471  0.28140301     0.66600
H2864       H  0.61550649  0.83608800  0.26001758     0.15500
H2865       H  0.65079120  0.75483634  0.19940055     0.15200
N2866       N  0.58520369  0.78413299  0.17706230     0.74300
O2867       O  0.66398253  0.81781759  0.30386759    -0.39100
O2868       O  0.72496026  0.80988795  0.27984690    -0.39100
O2869       O  0.60377867  0.78727121  0.15229434    -0.39800
O2870       O  0.54940863  0.77103276  0.17855680    -0.39800
C2871       C  0.89475063  0.79729007  0.20427676    -0.12100
C2872       C  0.89380365  0.82178390  0.22013538     0.04900
C2873       C  0.86096763  0.82585389  0.24166824    -0.07400
C2874       C  0.82998519  0.80546129  0.24711898    -0.08100
C2875       C  0.83030004  0.78083017  0.23134165    -0.02700
C2876       C  0.86322156  0.77686513  0.20941330     0.04100
N2877       N  0.86435684  0.75327475  0.19101038     0.66600
H2878       H  0.91938495  0.79432116  0.18711034     0.15500
H2879       H  0.80501691  0.80901060  0.26383669     0.15200
N2880       N  0.85828504  0.85067903  0.25801964     0.74300
O2881       O  0.89180905  0.73464479  0.19737560    -0.39100
O2882       O  0.85259124  0.75592715  0.16428643    -0.39100
O2883       O  0.82335837  0.86498245  0.25653021    -0.39800
O2884       O  0.88595889  0.85499305  0.27853210    -0.39800
C2885       C  0.89182315  0.96468879  0.19727471    -0.12100
C2886       C  0.90366690  0.94388391  0.21752407     0.04900
C2887       C  0.88514480  0.94486536  0.24635911    -0.07400
C2888       C  0.85143871  0.96376874  0.25267727    -0.08100
C2889       C  0.83686887  0.98270423  0.23148516    -0.02700
C2890       C  0.85944890  0.98439781  0.20438371     0.04100
N2891       N  0.85016520  0.50612081  0.18469409     0.66600
H2892       H  0.90686136  0.96527360  0.17552444     0.15500
H2893       H  0.83448466  0.96257983  0.27377706     0.15200
N2894       N  0.89824602  0.92609085  0.26910351     0.74300
O2895       O  0.86954846  0.52862981  0.18781139    -0.39100
O2896       O  0.82703261  0.50183788  0.16181679    -0.39100
O2897       O  0.93722382  0.92702130  0.27945116    -0.39800
O2898       O  0.86893782  0.91331572  0.28323758    -0.39800
C2899       C  0.64381641  0.92450184  0.23805293    -0.12100
C2900       C  0.60692059  0.93223237  0.22107116     0.04900
C2901       C  0.60336713  0.95901731  0.21023371    -0.07400
C2902       C  0.63719464  0.97767182  0.21629119    -0.08100
C2903       C  0.67423624  0.97006424  0.23349758    -0.02700
C2904       C  0.67702462  0.94325361  0.24484037     0.04100
N2905       N  0.71320356  0.93486749  0.26351184     0.66600
H2906       H  0.64666271  0.90380323  0.24622952     0.15500
H2907       H  0.63490734  0.99787674  0.20692114     0.15200
N2908       N  0.56698157  0.96695362  0.19155936     0.74300
O2909       O  0.71769213  0.94553371  0.28871155    -0.39100
O2910       O  0.73476484  0.91346650  0.25757519    -0.39100
O2911       O  0.52827060  0.96874810  0.20200137    -0.39800
O2912       O  0.57342463  0.97186755  0.16447397    -0.39800
C2913       C  0.61809374  0.67389851  0.49456381    -0.12100
C2914       C  0.64511032  0.68217551  0.47119121     0.04900
C2915       C  0.64005865  0.70874156  0.45979451    -0.07400
C2916       C  0.60865021  0.72536860  0.97042158    -0.08100
C2917       C  0.57752054  0.71690045  0.49283299    -0.02700
C2918       C  0.58411808  0.69061309  0.50557915     0.04100
N2919       N  0.55672922  0.68013993  0.52915636     0.66600
H2920       H  0.62254568  0.65363875  0.50363481     0.15500
H2921       H  0.60278080  0.74492432  0.95993105     0.15200
N2922       N  0.66853950  0.71745625  0.93534785     0.74300
O2923       O  0.55858408  0.65524886  0.53613181    -0.39100
O2924       O  0.53142349  0.69552401  0.54379678    -0.39100
O2925       O  0.65701968  0.71231033  0.90902841    -0.39800
O2926       O  0.69743685  0.73539390  0.94018695    -0.39800
C2927       C  0.89708043  0.70163954  0.01046935    -0.12100
C2928       C  0.91255517  0.72018306  0.48947553     0.04900
C2929       C  0.89571265  0.71901742  0.46017978    -0.07400
C2930       C  0.86560561  0.69849239  0.45271771    -0.08100
C2931       C  0.84851883  0.68102902  0.47425693    -0.02700
C2932       C  0.86478909  0.68240535  0.00319848     0.04100
N2933       N  0.84963601  0.66403261  0.02547070     0.66600
H2934       H  0.91166240  0.70103282  0.03236761     0.15500
H2935       H  0.85567029  0.69587815  0.42988501     0.15200
N2936       N  0.90906039  0.73794318  0.43778835     0.74300
O2937       O  0.86762902  0.64087760  0.02811629    -0.39100
O2938       O  0.82294933  0.67231174  0.04501404    -0.39100
O2939       O  0.90233461  0.76299728  0.44185811    -0.39800
O2940       O  0.91573907  0.72966728  0.41170643    -0.39800
C2941       C  0.65162300  0.78872559  0.04019725    -0.12100
C2942       C  0.64464455  0.81508747  0.02885315     0.04900
C2943       C  0.60602957  0.82011076  0.01183533    -0.07400
C2944       C  0.57375274  0.79968487  0.00885429    -0.08100
C2945       C  0.57883173  0.77380852  0.02196393    -0.02700
C2946       C  0.61958124  0.76797717  0.03673999     0.04100
N2947       N  0.62913693  0.74159003  0.04877442     0.66600
H2948       H  0.68149264  0.78452699  0.05294799     0.15500
H2949       H  0.54408094  0.80401904  0.99595573     0.15200
N2950       N  0.59987982  0.84546278  0.99651266     0.74300
O2951       O  0.66735660  0.73125504  0.04574948    -0.39100
O2952       O  0.60199800  0.73038221  0.06597246    -0.39100
O2953       O  0.62360183  0.85188816  0.47600655    -0.39800
O2954       O  0.56160497  0.85594327  0.99428261    -0.39800
C2955       C  0.90534543  0.78937455  0.00314205    -0.12100
C2956       C  0.91567132  0.76928209  0.02424381     0.04900
C2957       C  0.89131003  0.76869896  0.05092257    -0.07400
C2958       C  0.85881039  0.78864603  0.05614133    -0.08100
C2959       C  0.84981772  0.80942485  0.03546875    -0.02700
C2960       C  0.87250374  0.80905708  0.00820595     0.04100
N2961       N  0.86559255  0.82980642  0.98645386     0.66600
H2962       H  0.92569373  0.79127212  0.98357948     0.15500
H2963       H  0.84053692  0.78987214  0.57811045     0.15200
N2964       N  0.90042064  0.75138507  0.57542819     0.74300
O2965       O  0.89125707  0.84997003  0.98582650    -0.39100
O2966       O  0.84069484  0.82515756  0.96449072    -0.39100
O2967       O  0.91220442  0.76082248  0.60022489    -0.39800
O2968       O  0.88322651  0.72808708  0.57479104    -0.39800
C2969       C  0.50179247  0.79516397  0.10819688    -0.12100
C2970       C  0.48752044  0.82162118  0.10197308     0.04900
C2971       C  0.97834996  0.82846470  0.07314055    -0.07400
C2972       C  0.98384000  0.80989114  0.04996991    -0.08100
C2973       C  0.49731881  0.78352450  0.05596216    -0.02700
C2974       C  0.50630951  0.77584594  0.08564000     0.04100
N2975       N  0.51820803  0.74846137  0.09355172     0.66600
H2976       H  0.50899448  0.78946547  0.13089179     0.15500
H2977       H  0.97653484  0.81631989  0.02750956     0.15200
N2978       N  0.96228023  0.85535329  0.06672835     0.74300
O2979       O  0.54592363  0.74420553  0.11416226    -0.39100
O2980       O  0.49494465  0.72893498  0.08439137    -0.39100
O2981       O  0.97896667  0.86878636  0.04575475    -0.39800
O2982       O  0.92670698  0.86366492  0.07842785    -0.39800
C2983       C  0.62146655  0.70493389  0.30498179    -0.12100
C2984       C  0.60898083  0.68559132  0.28358005     0.04900
C2985       C  0.62662430  0.68796237  0.25469272    -0.07400
C2986       C  0.65917934  0.70755372  0.24897205    -0.08100
C2987       C  0.67392554  0.72543538  0.27110439    -0.02700
C2988       C  0.65275793  0.72506380  0.29885740     0.04100
N2989       N  0.65936455  0.74610717  0.32015719     0.66600
H2990       H  0.60649811  0.70467746  0.32676454     0.15500
H2991       H  0.67438995  0.70814898  0.22725292     0.15200
N2992       N  0.61346055  0.67017583  0.23119588     0.74300
O2993       O  0.63470617  0.76689113  0.31839179    -0.39100
O2994       O  0.67538225  0.73988012  0.34513408    -0.39100
O2995       O  0.57504167  0.67256443  0.22015151    -0.39800
O2996       O  0.64266786  0.65692186  0.21722969    -0.39800
C2997       C  0.89750379  0.71180656  0.29831503    -0.12100
C2998       C  0.90732979  0.69041347  0.27885582     0.04900
C2999       C  0.88510092  0.68884353  0.25152457    -0.07400
C3000       C  0.85016939  0.70692713  0.24535667    -0.08100
C3001       C  0.83903512  0.72790525  0.26511558    -0.02700
C3002       C  0.86468873  0.73125650  0.29119494     0.04100
N3003       N  0.85803142  0.75406747  0.31048811     0.66600
H3004       H  0.91539476  0.71329313  0.31914495     0.15500
H3005       H  0.83065319  0.70409792  0.22535197     0.15200
N3006       N  0.89629032  0.66811729  0.23056374     0.74300
O3007       O  0.86000292  0.75083841  0.33821622    -0.39100
O3008       O  0.86038572  0.77783323  0.30010978    -0.39100
O3009       O  0.87093433  0.64810836  0.22666144    -0.39800
O3010       O  0.93076820  0.67039858  0.21500888    -0.39800
C3011       C  0.86058085  0.58007637  0.26106407    -0.12100
C3012       C  0.89462688  0.57156345  0.28027712     0.04900
C3013       C  0.89535069  0.54435136  0.29030688    -0.07400
C3014       C  0.86134871  0.52652215  0.28186495    -0.08100
C3015       C  0.82677233  0.53517986  0.26308956    -0.02700
C3016       C  0.82693740  0.56218616  0.25227422     0.04100
N3017       N  0.79279332  0.57178632  0.23260105     0.66600
H3018       H  0.85951362  0.60095868  0.25337594     0.15500
H3019       H  0.86132852  0.00641347  0.29146363     0.15200
N3020       N  0.93088151  0.53443143  0.30859014     0.74300
O3021       O  0.77098225  0.59302486  0.23887793    -0.39100
O3022       O  0.78879619  0.56138978  0.20717896    -0.39100
O3023       O  0.92247495  0.52311271  0.33301286    -0.39800
O3024       O  0.96986158  0.53344491  0.29846252    -0.39800
C3025       C  0.64701646  0.54222952  0.24197310    -0.12100
C3026       C  0.66305715  0.52410237  0.26370554     0.04900
C3027       C  0.64255194  0.52406855  0.29181421    -0.07400
C3028       C  0.61033688  0.54392471  0.29852826    -0.08100
C3029       C  0.59645003  0.56305709  0.27728241    -0.02700
C3030       C  0.61350721  0.56128753  0.24835773     0.04100
N3031       N  0.60067517  0.58054449  0.22615242     0.66600
H3032       H  0.66286027  0.54289775  0.22047173     0.15500
H3033       H  0.59674356  0.54482053  0.32071038     0.15200
N3034       N  0.65504732  0.50470389  0.31401466     0.74300
O3035       O  0.62727784  0.59908729  0.21892968    -0.39100
O3036       O  0.56762203  0.57565870  0.20976246    -0.39100
O3037       O  0.66531745  0.51281259  0.33966519    -0.39800
O3038       O  0.64454920  0.48014251  0.31037085    -0.39800
C3039       C  0.51522082  0.71841294  0.43272611    -0.12100
C3040       C  0.49799578  0.70586752  0.45830482     0.04900
C3041       C  0.98064283  0.67909399  0.45711514    -0.07400
C3042       C  0.98002565  0.66638301  0.42917334    -0.08100
C3043       C  0.49714038  0.67916552  0.40272546    -0.02700
C3044       C  0.51490183  0.70535906  0.40510724     0.04100
N3045       N  0.53077936  0.71937313  0.37949847     0.66600
H3046       H  0.52745992  0.73906785  0.43402593     0.15500
H3047       H  0.96781748  0.64577435  0.42715370     0.15200
N3048       N  0.96419248  0.66413189  0.48226268     0.74300
O3049       O  0.50418184  0.72538776  0.35876055    -0.39100
O3050       O  0.56953626  0.72896192  0.37935047    -0.39100
O3051       O  0.94076139  0.64318846  0.47844722    -0.39800
O3052       O  0.97448117  0.67072568  0.50833794    -0.39800
C3053       C  0.87131417  0.56262412  0.49318553    -0.12100
C3054       C  0.84831493  0.55932996  0.46646462     0.04900
C3055       C  0.85624564  0.53565601  0.44941270    -0.07400
C3056       C  0.88898796  0.51686826  0.45840101    -0.08100
C3057       C  0.91456732  0.52162058  0.48380559    -0.02700
C3058       C  0.90507406  0.54159533  0.99846291     0.04100
N3059       N  0.92965024  0.54696187  0.02485924     0.66600
H3060       H  0.86473596  0.57691786  0.00503450     0.15500
H3061       H  0.89584110  0.49921027  0.44482183     0.15200
N3062       N  0.83213436  0.53069281  0.42267178     0.74300
O3063       O  0.91012186  0.54533956  0.04945696    -0.39100
O3064       O  0.96100868  0.07276659  0.02151268    -0.39100
O3065       O  0.85263770  0.52915210  0.39840364    -0.39800
O3066       O  0.79209906  0.52338893  0.42396714    -0.39800
C3067       C  0.63101192  0.56249323  0.49453825    -0.12100
C3068       C  0.64669763  0.56353593  0.46551382     0.04900
C3069       C  0.63053738  0.54489502  0.44444280    -0.07400
C3070       C  0.59722064  0.52646335  0.45234040    -0.08100
C3071       C  0.57917800  0.52657682  0.48101060    -0.02700
C3072       C  0.59860567  0.54351287  0.00122402     0.04100
N3073       N  0.58002864  0.54552348  0.03020119     0.66600
H3074       H  0.64321401  0.57654610  0.00974896     0.15500
H3075       H  0.58424229  0.51273136  0.43573583     0.15200
N3076       N  0.64803575  0.54431876  0.41508332     0.74300
O3077       O  0.60358026  0.53847711  0.05211899    -0.39100
O3078       O  0.54899269  0.56240472  0.03433964    -0.39100
O3079       O  0.68293272  0.53082351  0.40983778    -0.39800
O3080       O  0.62555080  0.55399344  0.39383914    -0.39800
C3081       C  0.50686896  0.56342782  0.45361271    -0.12100
C3082       C  0.49562422  0.53611881  0.44942709     0.04900
C3083       C  0.98538708  0.52718793  0.42166710    -0.07400
C3084       C  0.98868971  0.54502399  0.39758822    -0.08100
C3085       C  0.50442961  0.57122432  0.40044977    -0.02700
C3086       C  0.51397698  0.58069500  0.42938748     0.04100
N3087       N  0.53448523  0.60665184  0.43438462     0.66600
H3088       H  0.51383975  0.57059414  0.47582410     0.15500
H3089       H  0.98146437  0.53778944  0.37543057     0.15200
N3090       N  0.97666104  0.49903514  0.41603304     0.74300
O3091       O  0.53083355  0.61817805  0.45926078    -0.39100
O3092       O  0.56395459  0.61490863  0.41682326    -0.39100
O3093       O  0.94681826  0.49247918  0.39768762    -0.39800
O3094       O  0.00462327  0.48130286  0.42417968    -0.39800
C3095       C  0.88723911  0.97522175  0.02917822    -0.12100
C3096       C  0.92398841  0.96645826  0.01251280     0.04900
C3097       C  0.92560897  0.93901231  0.00298229    -0.07400
C3098       C  0.89278671  0.92070374  0.01179941    -0.08100
C3099       C  0.85661056  0.92926461  0.02870701    -0.02700
C3100       C  0.85346885  0.95687627  0.03710784     0.04100
N3101       N  0.81749403  0.96617806  0.05504152     0.66600
H3102       H  0.88605746  0.49472297  0.03627469     0.15500
H3103       H  0.89511850  0.89965841  0.00492686     0.15200
N3104       N  0.95954571  0.92970482  0.98327548     0.74300
O3105       O  0.82065008  0.96496183  0.08290370    -0.39100
O3106       O  0.78546502  0.97896165  0.04328984    -0.39100
O3107       O  0.97874041  0.90715703  0.98787686    -0.38200
O3108       O  0.96349944  0.94106610  0.95837194    -0.39800
C3109       C  0.64032176  0.93952256  0.00170662    -0.12100
C3110       C  0.65452787  0.93876397  0.03131063     0.04900
C3111       C  0.63892828  0.95915657  0.05094619    -0.07400
C3112       C  0.60507058  0.97688326  0.04201236    -0.08100
C3113       C  0.58708970  0.97523261  0.01352859    -0.02700
C3114       C  0.60688874  0.95760946  0.99264327     0.04100
N3115       N  0.59000469  0.95552976  0.96310701     0.66600
H3116       H  0.65257050  0.92462843  0.98598964     0.15500
H3117       H  0.58709007  0.48902828  0.05830952     0.15200
N3118       N  0.65650445  0.96211037  0.08014672     0.74300
O3119       O  0.54985946  0.94203215  0.45708871    -0.39100
O3120       O  0.61589019  0.95889830  0.94152393    -0.39100
O3121       O  0.68474764  0.98049519  0.08473679    -0.39800
O3122       O  0.63535430  0.95243588  0.10176851    -0.39800
C3123       C  0.52856898  0.93522763  0.04675779    -0.12100
C3124       C  0.50672660  0.96055189  0.04665795     0.04900
C3125       C  0.99042772  0.96999804  0.07314524    -0.07400
C3126       C  0.99333821  0.95412529  0.09878821    -0.08100
C3127       C  0.51689695  0.93099974  0.09972130    -0.02700
C3128       C  0.53659493  0.92114850  0.07339387     0.04100
N3129       N  0.56524294  0.89748854  0.07338592     0.66600
H3130       H  0.54173576  0.92730400  0.02620006     0.15500
H3131       H  0.97789214  0.96125791  0.11903352     0.15200
N3132       N  0.97229417  0.99688952  0.07531931     0.74300
O3133       O  0.57350216  0.88526985  0.04943791    -0.39100
O3134       O  0.58844839  0.89169381  0.09591654    -0.39100
O3135       O  0.93738092  0.00097406  0.09009612    -0.39800
O3136       O  0.99631412  0.01686205  0.06855709    -0.39800
C3137       C  0.50059369  0.97774112  0.51756491     0.02400
C3138       C  0.54029087  0.98830523  0.50544474     0.02400
C3139       C  0.54083766  0.50890178  0.98609422     0.02400
C3140       C  0.99872494  0.51649470  0.97286814     0.02400
C3141       C  0.95914694  0.50504206  0.98410606     0.02400
C3142       C  0.95939790  0.98513084  0.50697941     0.02400
O3143       O  0.96842078  0.66271774  0.85717563    -0.85200
O3144       O  0.91958656  0.65045435  0.80728506    -0.82200
C3145       C  0.93422163  0.66654122  0.78781519     0.98300
O3146       O  0.97181148  0.66276696  0.77633581    -0.82300
O3147       O  0.55977172  0.64716333  0.77367384    -0.84900
C3148       C  0.57821206  0.66290780  0.79217909     1.02800
O3149       O  0.57266898  0.65923436  0.81950318    -0.77700
O3150       O  0.53329374  0.64676935  0.87209424    -0.77900
C3151       C  0.50054426  0.66265078  0.87584770     1.02700
O3152       O  0.97472199  0.60654874  0.87205232    -0.85200
O3153       O  0.93308244  0.59324602  0.81957313    -0.82300
C3154       C  0.92583109  0.59084648  0.79217951     0.98300
O3155       O  0.94415310  0.60674720  0.77385132    -0.82300
O3156       O  0.53164464  0.59089899  0.77544035    -0.84900
C3157       C  0.56912131  0.58624563  0.78698257     1.02800
O3158       O  0.58474198  0.60204654  0.80649542    -0.77700
O3159       O  0.53793309  0.59021444  0.85666404    -0.77900
C3160       C  0.50606014  0.58951034  0.87456171     1.02700
Cr3161     Cr  0.95273596  0.62806981  0.83724742     1.93700
Cr3162     Cr  0.50187531  0.62698711  0.77807099     1.93200
Cr3163     Cr  0.55344122  0.62475968  0.83699371     1.39100
O3164       O  0.50246522  0.62654101  0.81756654    -1.22900
C3165       C  0.99855136  0.72282791  0.98596149     0.02400
C3166       C  0.95742029  0.73299733  0.99676770     0.02400
C3167       C  0.95520402  0.75400497  0.51977961     0.02400
C3168       C  0.49410441  0.76369135  0.53017617     0.02400
C3169       C  0.53576325  0.75505246  0.51863428     0.02400
C3170       C  0.53975442  0.73252825  0.99931058     0.02400
O3171       O  0.53922058  0.90825286  0.64021720    -0.85200
O3172       O  0.58473936  0.89365718  0.69120507    -0.82200
C3173       C  0.57283581  0.91147101  0.70982210     0.98300
O3174       O  0.53463016  0.91118649  0.72100579    -0.82300
O3175       O  0.94403325  0.90273135  0.72620500    -0.84900
C3176       C  0.92888505  0.92014055  0.70788744     1.02800
O3177       O  0.93511874  0.91662302  0.68057873    -0.77700
O3178       O  0.97226553  0.89938247  0.62842793    -0.77900
C3179       C  0.50679690  0.91149734  0.62277561     1.02700
O3180       O  0.52082155  0.85279548  0.62815534    -0.85200
O3181       O  0.56016166  0.83787755  0.68068874    -0.82300
C3182       C  0.56764694  0.83578072  0.70806404     0.98300
O3183       O  0.55145569  0.85334922  0.72568412    -0.82300
O3184       O  0.96162174  0.84453772  0.72423181    -0.84900
C3185       C  0.92329699  0.84351715  0.71299749     1.02800
O3186       O  0.91058565  0.86111615  0.69424425    -0.77700
O3187       O  0.95543090  0.84452843  0.64411826    -0.77900
C3188       C  0.48487168  0.83986534  0.62615783     1.02700
Cr3189     Cr  0.54741571  0.87343082  0.66174234     1.93700
Cr3190     Cr  0.49777823  0.87812217  0.72073502     1.93200
Cr3191     Cr  0.94708568  0.88026837  0.66354099     1.39100
O3192       O  0.49712750  0.87733222  0.68148684    -1.22900
C3193       C  0.74403479  0.52239309  0.77024348     0.02400
C3194       C  0.70534619  0.50952170  0.75934240     0.02400
C3195       C  0.70896001  0.98903120  0.73706577     0.02400
C3196       C  0.75096596  0.98295288  0.72443392     0.02400
C3197       C  0.78980197  0.99584661  0.73544423     0.02400
C3198       C  0.78633806  0.51621334  0.75841260     0.02400
O3199       O  0.77047411  0.85307185  0.62248460    -0.85200
O3200       O  0.81038209  0.83649507  0.57131408    -0.82200
C3201       C  0.81727805  0.83259660  0.54417065     0.98300
O3202       O  0.80097488  0.84881098  0.52502805    -0.82300
O3203       O  0.71064763  0.83900106  0.52624148    -0.84900
C3204       C  0.67198222  0.83752162  0.53685258     1.02800
O3205       O  0.65888653  0.85513145  0.55543945    -0.77700
O3206       O  0.70512851  0.84022634  0.60613555    -0.77900
C3207       C  0.73648966  0.83826206  0.62457640     1.02700
O3208       O  0.78486686  0.90823187  0.60554868    -0.85200
O3209       O  0.83319147  0.89181393  0.55740078    -0.82300
C3210       C  0.82087447  0.90891346  0.53805050     0.98300
O3211       O  0.78288907  0.90710530  0.52625975    -0.82300
O3212       O  0.69309886  0.89745741  0.52292459    -0.84900
C3213       C  0.67704608  0.91463658  0.54103240     1.02800
O3214       O  0.68151071  0.91104227  0.56841617    -0.77700
O3215       O  0.71878265  0.89651616  0.62098809    -0.77900
C3216       C  0.75322033  0.91101277  0.62335383     1.02700
Cr3217     Cr  0.79600151  0.87243328  0.58750006     1.93700
Cr3218     Cr  0.74678367  0.87310430  0.52790403     1.93200
Cr3219     Cr  0.69477768  0.87554339  0.58614341     1.39100
O3220       O  0.74584490  0.87363566  0.56710753    -1.22900
C3221       C  0.75549732  0.73128155  0.77239298     0.02400
C3222       C  0.79468115  0.74141845  0.75888270     0.02400
C3223       C  0.79127449  0.76155559  0.73655368     0.02400
C3224       C  0.74857617  0.77017526  0.72710251     0.02400
C3225       C  0.71002528  0.76237540  0.74255632     0.02400
C3226       C  0.71297824  0.74156062  0.76393554     0.02400
O3227       O  0.71088152  0.59270152  0.89023904    -0.85200
O3228       O  0.66454293  0.60426917  0.93977610    -0.82200
C3229       C  0.67809953  0.58529989  0.95661205     0.98300
O3230       O  0.71622808  0.58620809  0.96811982    -0.82300
O3231       O  0.80509966  0.59683436  0.97282444    -0.84900
C3232       C  0.82118689  0.58082464  0.95361700     1.02800
O3233       O  0.81593811  0.58582018  0.92649253    -0.77700
O3234       O  0.77747695  0.60449857  0.87561824    -0.77900
C3235       C  0.74286536  0.59037596  0.87272455     1.02700
O3236       O  0.72514110  0.64897318  0.87824602    -0.85200
O3237       O  0.68631711  0.66129871  0.93178064    -0.82300
C3238       C  0.67937427  0.66172526  0.95923335     0.98300
O3239       O  0.69569384  0.64327064  0.97577107    -0.82300
O3240       O  0.78514813  0.65407456  0.97513486    -0.84900
C3241       C  0.82291734  0.65710814  0.96373865     1.02800
O3242       O  0.83661059  0.64131083  0.94354819    -0.77700
O3243       O  0.79170428  0.65945452  0.89423735    -0.77900
C3244       C  0.76000116  0.66307634  0.87633007     1.02700
Cr3245     Cr  0.70039869  0.62676979  0.91156908     1.93700
Cr3246     Cr  0.75056907  0.62034817  0.97016423     1.93200
Cr3247     Cr  0.80178562  0.62279221  0.91162384     1.39100
O3248       O  0.75101939  0.62348921  0.93110771    -1.22900
C3249       C  0.76301323  0.72522666  0.82657867    -0.12100
C3250       C  0.75942800  0.71301487  0.79859008     0.04900
C3251       C  0.76133660  0.68438865  0.79645639    -0.07400
C3252       C  0.76343866  0.66874044  0.82235299    -0.08100
C3253       C  0.76494130  0.68096861  0.85039133    -0.02700
C3254       C  0.76641132  0.70954369  0.85249331     0.04100
N3255       N  0.77057337  0.72294020  0.88051963     0.66600
H3256       H  0.76315046  0.74723663  0.82823229     0.15500
H3257       H  0.76325753  0.64673540  0.82059131     0.15200
N3258       N  0.76163385  0.67075091  0.76849094     0.74300
O3259       O  0.80428995  0.71830374  0.89643563    -0.39100
O3260       O  0.74655843  0.74340965  0.88620044    -0.39100
O3261       O  0.79399482  0.65536795  0.76234372    -0.39800
O3262       O  0.72550019  0.66734497  0.75487961    -0.39800
C3263       C  0.73955514  0.79235575  0.64690989    -0.12100
C3264       C  0.73300083  0.82039985  0.65032702     0.04900
C3265       C  0.72945302  0.83176696  0.67892967    -0.07400
C3266       C  0.73682719  0.81524858  0.70365459    -0.08100
C3267       C  0.74396230  0.78728426  0.70036041    -0.02700
C3268       C  0.74361817  0.77550501  0.67181633     0.04100
N3269       N  0.74582652  0.74656351  0.66790629     0.66600
H3270       H  0.74152731  0.78360258  0.62491053     0.15500
H3271       H  0.73517562  0.82401521  0.72562046     0.15200
N3272       N  0.71591990  0.85957029  0.68311778     0.74300
O3273       O  0.77603300  0.73622736  0.65218191    -0.39100
O3274       O  0.71256040  0.73228426  0.67423898    -0.39100
O3275       O  0.68212575  0.86853187  0.66951537    -0.39800
O3276       O  0.73123657  0.87308088  0.70458670    -0.39800
C3277       C  0.77794522  0.94063347  0.69868875    -0.12100
C3278       C  0.75322447  0.96496077  0.69775328     0.04900
C3279       C  0.73066671  0.97206129  0.67118767    -0.07400
C3280       C  0.73101244  0.95379346  0.64739474    -0.08100
C3281       C  0.75690593  0.93014395  0.64814854    -0.02700
C3282       C  0.78259115  0.92405874  0.67361090     0.04100
N3283       N  0.81334172  0.90144612  0.67450751     0.66600
H3284       H  0.79498004  0.93484965  0.71881778     0.15500
H3285       H  0.71216617  0.95845213  0.62763220     0.15200
N3286       N  0.70839548  0.99786845  0.66766538     0.74300
O3287       O  0.83644848  0.89567695  0.65209125    -0.39100
O3288       O  0.82350230  0.89055916  0.69898785    -0.39100
O3289       O  0.72628532  0.01936316  0.67707938    -0.39800
O3290       O  0.67419177  0.99977669  0.65146571    -0.39800
C3291       C  0.76138703  0.54748903  0.84839025    -0.12100
C3292       C  0.73903226  0.57236979  0.84747540     0.04900
C3293       C  0.71642421  0.58077688  0.82165698    -0.07400
C3294       C  0.72005828  0.56487583  0.79611665    -0.08100
C3295       C  0.74161013  0.53948959  0.79711399    -0.02700
C3296       C  0.76126825  0.53032031  0.82386916     0.04100
N3297       N  0.77972206  0.50341131  0.82672290     0.66600
H3298       H  0.77767872  0.54109490  0.86858473     0.15500
H3299       H  0.70472357  0.57184455  0.77572876     0.15200
N3300       N  0.68948807  0.60504047  0.82127686     0.74300
O3301       O  0.81281868  0.99739794  0.83982188    -0.39100
O3302       O  0.75436573  0.98238213  0.81672451    -0.39100
O3303       O  0.68782187  0.61979955  0.79839727    -0.39800
O3304       O  0.66250407  0.60960626  0.84204654    -0.39800
C3305       C  0.62101890  0.81807017  0.74623346    -0.12100
C3306       C  0.59850926  0.81408028  0.71926089     0.04900
C3307       C  0.60902709  0.79062359  0.70246819    -0.07400
C3308       C  0.64241126  0.77262828  0.71211600    -0.08100
C3309       C  0.66766767  0.77796734  0.73757628    -0.02700
C3310       C  0.65615847  0.80084464  0.75526004     0.04100
N3311       N  0.68109799  0.80803510  0.78136208     0.66600
H3312       H  0.61362420  0.83599297  0.75932908     0.15500
H3313       H  0.65010744  0.75507500  0.69868838     0.15200
N3314       N  0.58698984  0.78499235  0.67510162     0.74300
O3315       O  0.66175550  0.81936978  0.80288870    -0.39100
O3316       O  0.72294628  0.80703220  0.78133628    -0.39100
O3317       O  0.60552410  0.79124526  0.65103323    -0.39800
O3318       O  0.55501138  0.76855157  0.67484428    -0.39800
C3319       C  0.89445261  0.79713924  0.70524927    -0.12100
C3320       C  0.89292879  0.82151433  0.72123203     0.04900
C3321       C  0.85962821  0.82541358  0.74248899    -0.07400
C3322       C  0.82821825  0.80506575  0.74713526    -0.08100
C3323       C  0.82912365  0.78050393  0.73118742    -0.02700
C3324       C  0.86296265  0.77662516  0.70985771     0.04100
N3325       N  0.86521622  0.75305089  0.69148832     0.66600
H3326       H  0.91957179  0.79432645  0.68836281     0.15500
H3327       H  0.80271960  0.80846612  0.76353802     0.15200
N3328       N  0.85721608  0.84989314  0.75952622     0.74300
O3329       O  0.89195270  0.73433985  0.69882440    -0.39100
O3330       O  0.85640171  0.75598309  0.66432029    -0.39100
O3331       O  0.82127124  0.86323358  0.76050285    -0.39800
O3332       O  0.88789201  0.85527845  0.77770129    -0.39800
C3333       C  0.88864983  0.96391193  0.69694188    -0.12100
C3334       C  0.90084592  0.94367441  0.71776017     0.04900
C3335       C  0.88224237  0.94511577  0.74649162    -0.07400
C3336       C  0.84841986  0.96406021  0.75235468    -0.08100
C3337       C  0.83390278  0.98267096  0.73076448    -0.02700
C3338       C  0.85617293  0.98368444  0.70348814     0.04100
N3339       N  0.85075253  0.50653470  0.68767694     0.66600
H3340       H  0.90358494  0.96402507  0.67514864     0.15500
H3341       H  0.83139999  0.96316927  0.77344662     0.15200
N3342       N  0.89545156  0.92677147  0.76959109     0.74300
O3343       O  0.86725675  0.52950538  0.69331730    -0.39100
O3344       O  0.83201400  0.50253682  0.66301996    -0.39100
O3345       O  0.93391450  0.92861102  0.78061365    -0.39800
O3346       O  0.86633227  0.91342049  0.78325397    -0.39800
C3347       C  0.63990443  0.92496142  0.73757092    -0.12100
C3348       C  0.60461431  0.93228679  0.71889498     0.04900
C3349       C  0.60171141  0.95891277  0.70755115    -0.07400
C3350       C  0.63534723  0.97758289  0.71397132    -0.08100
C3351       C  0.67139943  0.97011277  0.73213958    -0.02700
C3352       C  0.67274859  0.94381592  0.74479051     0.04100
N3353       N  0.70676080  0.93620618  0.76551642     0.66600
H3354       H  0.64187322  0.90454274  0.74662898     0.15500
H3355       H  0.63357310  0.99774313  0.70440770     0.15200
N3356       N  0.56562412  0.96682756  0.68863408     0.74300
O3357       O  0.69972569  0.93912553  0.79285109    -0.39100
O3358       O  0.73790745  0.92070660  0.75735903    -0.39100
O3359       O  0.52729984  0.97029359  0.69924547    -0.39800
O3360       O  0.57158057  0.96915791  0.66109560    -0.39800
C3361       C  0.62310952  0.67447548  0.99631648    -0.12100
C3362       C  0.64848126  0.68211386  0.97185702     0.04900
C3363       C  0.64183869  0.70814043  0.95929902    -0.07400
C3364       C  0.60672179  0.72595456  0.47087954    -0.08100
C3365       C  0.58099693  0.71683091  0.99343514    -0.02700
C3366       C  0.58910084  0.69119698  0.00729960     0.04100
N3367       N  0.56303732  0.68131005  0.03184330     0.66600
H3368       H  0.62868397  0.65464702  0.00621358     0.15500
H3369       H  0.60209235  0.74597455  0.46120518     0.15200
N3370       N  0.66881500  0.71866028  0.43726535     0.74300
O3371       O  0.56613388  0.65675518  0.03996752    -0.39100
O3372       O  0.53737027  0.69685320  0.04600098    -0.39100
O3373       O  0.65877305  0.71518861  0.41036168    -0.39800
O3374       O  0.69904011  0.73518820  0.44410843    -0.39800
C3375       C  0.89363008  0.70341553  0.51118195    -0.12100
C3376       C  0.91517238  0.71891007  0.98889604     0.04900
C3377       C  0.89808371  0.71785667  0.95965951    -0.07400
C3378       C  0.86826686  0.69719818  0.95209001    -0.08100
C3379       C  0.85179848  0.67935288  0.97348763    -0.02700
C3380       C  0.86095982  0.68442804  0.50400646     0.04100
N3381       N  0.84495578  0.66654717  0.52647302     0.66600
H3382       H  0.90793436  0.70286756  0.53313219     0.15500
H3383       H  0.85795050  0.69487590  0.92928029     0.15200
N3384       N  0.91100581  0.73703993  0.93740977     0.74300
O3385       O  0.86296096  0.64350399  0.53007532    -0.39100
O3386       O  0.81770491  0.67530569  0.54541896    -0.39100
O3387       O  0.90589581  0.76211520  0.94225077    -0.39800
O3388       O  0.91660230  0.72919578  0.91105254    -0.39800
C3389       C  0.64848243  0.78868186  0.53880596    -0.12100
C3390       C  0.64129292  0.81516123  0.52802037     0.04900
C3391       C  0.60220963  0.82055800  0.51178456    -0.07400
C3392       C  0.56940681  0.80043939  0.50915499    -0.08100
C3393       C  0.57490205  0.77419732  0.52145092    -0.02700
C3394       C  0.61633417  0.76799042  0.53538798     0.04100
N3395       N  0.62669301  0.74135490  0.54660624     0.66600
H3396       H  0.67877707  0.78432123  0.55103362     0.15500
H3397       H  0.53926070  0.80525273  0.49694839     0.15200
N3398       N  0.59672269  0.84581595  0.49629638     0.74300
O3399       O  0.66599689  0.73231414  0.54531095    -0.39100
O3400       O  0.59830471  0.72813801  0.56093156    -0.39100
O3401       O  0.63098938  0.85488334  0.98100563    -0.39800
O3402       O  0.56113489  0.85928827  0.49873200    -0.39800
C3403       C  0.90224323  0.78946444  0.50331354    -0.12100
C3404       C  0.91375159  0.77012408  0.52498827     0.04900
C3405       C  0.89018069  0.77005225  0.55199815    -0.07400
C3406       C  0.85728300  0.78977934  0.55690349    -0.08100
C3407       C  0.84702553  0.80978039  0.53558957    -0.02700
C3408       C  0.86874313  0.80879039  0.50801249     0.04100
N3409       N  0.85963970  0.82836149  0.48531485     0.66600
H3410       H  0.92203051  0.79103756  0.48348098     0.15500
H3411       H  0.84140839  0.78829430  0.07710493     0.15200
N3412       N  0.90024110  0.74915782  0.07370660     0.74300
O3413       O  0.88256008  0.84970629  0.48387225    -0.39100
O3414       O  0.83479464  0.82203090  0.46383813    -0.39100
O3415       O  0.91325364  0.75758483  0.09866502    -0.39800
O3416       O  0.88076292  0.72656148  0.07255181    -0.39800
C3417       C  0.50276036  0.79492964  0.60698694    -0.12100
C3418       C  0.48104072  0.81974799  0.60264123     0.04900
C3419       C  0.97419993  0.82876476  0.57390390    -0.07400
C3420       C  0.98105410  0.81039929  0.55062170    -0.08100
C3421       C  0.49255073  0.78351339  0.55513874    -0.02700
C3422       C  0.50669287  0.77610933  0.58399463     0.04100
N3423       N  0.52161490  0.74909425  0.59097979     0.66600
H3424       H  0.51521004  0.78981917  0.62883099     0.15500
H3425       H  0.97320991  0.81660270  0.52816480     0.15200
N3426       N  0.95488621  0.85501629  0.56779674     0.74300
O3427       O  0.55169766  0.74559762  0.61023681    -0.39100
O3428       O  0.49773927  0.72915654  0.58380797    -0.39100
O3429       O  0.96367081  0.86721152  0.54392332    -0.39800
O3430       O  0.92370197  0.86391644  0.58376569    -0.39800
C3431       C  0.62003225  0.70483527  0.80409424    -0.12100
C3432       C  0.60776650  0.68541792  0.78271683     0.04900
C3433       C  0.62574376  0.68762517  0.75392251    -0.07400
C3434       C  0.65787288  0.70744769  0.74816677    -0.08100
C3435       C  0.67259943  0.72528333  0.77034582    -0.02700
C3436       C  0.65151225  0.72484750  0.79810634     0.04100
N3437       N  0.65881252  0.74552872  0.81973036     0.66600
H3438       H  0.60495453  0.70462571  0.82584865     0.15500
H3439       H  0.67314495  0.70805403  0.72647396     0.15200
N3440       N  0.61359827  0.66936130  0.73062649     0.74300
O3441       O  0.63652329  0.76723409  0.81738422    -0.39100
O3442       O  0.67249606  0.73862351  0.84511327    -0.39100
O3443       O  0.57565773  0.67150769  0.71881895    -0.39800
O3444       O  0.64348656  0.65601683  0.71741393    -0.39800
C3445       C  0.89578067  0.71039369  0.79723723    -0.12100
C3446       C  0.90545783  0.68899561  0.77776338     0.04900
C3447       C  0.88326705  0.68755206  0.75040671    -0.07400
C3448       C  0.84834416  0.70567562  0.74430026    -0.08100
C3449       C  0.83758261  0.72681163  0.76398191    -0.02700
C3450       C  0.86324140  0.72999606  0.79008830     0.04100
N3451       N  0.85687790  0.75281220  0.80939572     0.66600
H3452       H  0.91372830  0.71184773  0.81805117     0.15500
H3453       H  0.82877545  0.70289316  0.72431137     0.15200
N3454       N  0.89465347  0.66704833  0.72925392     0.74300
O3455       O  0.85775735  0.74940286  0.83711960    -0.39100
O3456       O  0.86111679  0.77654589  0.79922195    -0.39100
O3457       O  0.87355825  0.64498962  0.72840202    -0.39800
O3458       O  0.92643356  0.67083754  0.71164459    -0.39800
C3459       C  0.85775329  0.57965906  0.76381713    -0.12100
C3460       C  0.89303791  0.57072302  0.78171756     0.04900
C3461       C  0.89444390  0.54332624  0.79101631    -0.07400
C3462       C  0.86006891  0.52561658  0.78291661    -0.08100
C3463       C  0.82457870  0.53456522  0.76502082    -0.02700
C3464       C  0.82385970  0.56191231  0.75513781     0.04100
N3465       N  0.78886193  0.57198054  0.73634554     0.66600
H3466       H  0.85618983  0.60071763  0.75687051     0.15500
H3467       H  0.85852774  0.00644225  0.79047386     0.15200
N3468       N  0.93116389  0.53305677  0.80797601     0.74300
O3469       O  0.77132209  0.59491443  0.74139722    -0.39100
O3470       O  0.77959352  0.55974769  0.71256389    -0.39100
O3471       O  0.92443593  0.52141772  0.83245963    -0.39800
O3472       O  0.96928503  0.53195929  0.79650647    -0.39800
C3473       C  0.64543390  0.54056545  0.74255732    -0.12100
C3474       C  0.66105609  0.52258989  0.76454651     0.04900
C3475       C  0.64056388  0.52301697  0.79265727    -0.07400
C3476       C  0.60910227  0.54337406  0.79917556    -0.08100
C3477       C  0.59603851  0.56252010  0.77772487    -0.02700
C3478       C  0.61280121  0.56018060  0.74878890     0.04100
N3479       N  0.60109477  0.57958884  0.72649439     0.66600
H3480       H  0.66137463  0.54090664  0.72107466     0.15500
H3481       H  0.59545457  0.54463689  0.82132166     0.15200
N3482       N  0.65236963  0.50362119  0.81501096     0.74300
O3483       O  0.62657185  0.59935053  0.72171115    -0.39100
O3484       O  0.57166610  0.57374051  0.70759853    -0.39100
O3485       O  0.66155547  0.51165091  0.84087257    -0.39800
O3486       O  0.64278741  0.47896116  0.81098279    -0.39800
C3487       C  0.51574215  0.71848007  0.93313918    -0.12100
C3488       C  0.50070210  0.70564019  0.95917795     0.04900
C3489       C  0.98380110  0.67880802  0.95579964    -0.07400
C3490       C  0.98298549  0.66624322  0.92777162    -0.08100
C3491       C  0.49831252  0.67875677  0.90345292    -0.02700
C3492       C  0.51440867  0.70542434  0.90544895     0.04100
N3493       N  0.52771206  0.71985191  0.87943418     0.66600
H3494       H  0.52692000  0.73937519  0.93416613     0.15500
H3495       H  0.97094674  0.64560316  0.92569042     0.15200
N3496       N  0.96802932  0.66357833  0.98093381     0.74300
O3497       O  0.49989331  0.72430870  0.85894905    -0.39100
O3498       O  0.56520877  0.73111710  0.87853906    -0.39100
O3499       O  0.94450646  0.64267217  0.97712516    -0.39800
O3500       O  0.97930605  0.66978504  0.00694189    -0.39800
C3501       C  0.87140827  0.55979846  0.99054238    -0.12100
C3502       C  0.84972404  0.55773200  0.96319307     0.04900
C3503       C  0.85923557  0.53509357  0.94485951    -0.07400
C3504       C  0.89250693  0.51639292  0.95314190    -0.08100
C3505       C  0.91695571  0.52015268  0.97922196    -0.02700
C3506       C  0.90452895  0.54433924  0.50171863     0.04100
N3507       N  0.93035557  0.55068788  0.52732062     0.66600
H3508       H  0.86586544  0.58060779  0.50663077     0.15500
H3509       H  0.90041156  0.49953290  0.93865523     0.15200
N3510       N  0.83561056  0.53082011  0.91781652     0.74300
O3511       O  0.91463693  0.54518672  0.55244503    -0.39100
O3512       O  0.95966234  0.07101387  0.52278867    -0.39100
O3513       O  0.85613129  0.53176112  0.89352433    -0.39800
O3514       O  0.79727268  0.52065902  0.91866760    -0.39800
C3515       C  0.63176983  0.56194395  0.99345840    -0.12100
C3516       C  0.64785588  0.56308495  0.96454481     0.04900
C3517       C  0.63250405  0.54423592  0.94340187    -0.07400
C3518       C  0.59976520  0.52536203  0.95118943    -0.08100
C3519       C  0.58147402  0.52528469  0.97979131    -0.02700
C3520       C  0.59728545  0.54447666  0.50244390     0.04100
N3521       N  0.57936566  0.54648619  0.53162379     0.66600
H3522       H  0.64311818  0.57694103  0.51077805     0.15500
H3523       H  0.58717511  0.51154993  0.93451355     0.15200
N3524       N  0.64993451  0.54405236  0.91401946     0.74300
O3525       O  0.60469846  0.54245229  0.55356408    -0.39100
O3526       O  0.54461320  0.56045031  0.53534773    -0.39100
O3527       O  0.68528390  0.53105713  0.90864780    -0.39800
O3528       O  0.62696351  0.55344493  0.89285370    -0.39800
C3529       C  0.51094761  0.56273127  0.95265302    -0.12100
C3530       C  0.49812121  0.53569302  0.94839797     0.04900
C3531       C  0.99082866  0.52622081  0.91816335    -0.07400
C3532       C  0.99446869  0.54443717  0.89450544    -0.08100
C3533       C  0.50707567  0.57077166  0.89970833    -0.02700
C3534       C  0.51831650  0.57991910  0.92845732     0.04100
N3535       N  0.54042054  0.60543673  0.93319526     0.66600
H3536       H  0.51892926  0.56965420  0.97479433     0.15500
H3537       H  0.98836192  0.53746243  0.87209231     0.15200
N3538       N  0.98323914  0.49805119  0.91191066     0.74300
O3539       O  0.53872549  0.61684004  0.95823468    -0.39100
O3540       O  0.56900877  0.61345091  0.91485944    -0.39100
O3541       O  0.95371496  0.49140467  0.89338066    -0.39800
O3542       O  0.01201951  0.48062687  0.91954025    -0.39800
C3543       C  0.88712045  0.97471696  0.53290555    -0.12100
C3544       C  0.91982700  0.96742634  0.51223314     0.04900
C3545       C  0.91780303  0.94135086  0.49901322    -0.07400
C3546       C  0.88460555  0.92297356  0.50721315    -0.08100
C3547       C  0.85260705  0.92998506  0.52824375    -0.02700
C3548       C  0.85384808  0.95615547  0.54112676     0.04100
N3549       N  0.82316192  0.96355204  0.56381860     0.66600
H3550       H  0.88554960  0.49492403  0.54273942     0.15500
H3551       H  0.88403144  0.90294711  0.49723303     0.15200
N3552       N  0.94953375  0.93315689  0.47724533     0.74300
O3553       O  0.83308146  0.95911184  0.59059673    -0.39100
O3554       O  0.79028936  0.97860156  0.55761151    -0.39100
O3555       O  0.97029256  0.91090506  0.48023004    -0.38200
O3556       O  0.95065387  0.94544889  0.45271967    -0.39800
C3557       C  0.63520250  0.93822167  0.50081335    -0.12100
C3558       C  0.64971664  0.93785895  0.53038581     0.04900
C3559       C  0.63431591  0.95848371  0.54980782    -0.07400
C3560       C  0.60092422  0.97638947  0.54059637    -0.08100
C3561       C  0.58298165  0.97456873  0.51214164    -0.02700
C3562       C  0.60213673  0.95645261  0.49153696     0.04100
N3563       N  0.58557239  0.95453851  0.46190085     0.66600
H3564       H  0.64725422  0.92313160  0.48524944     0.15500
H3565       H  0.58968612  0.49182089  0.55885888     0.15200
N3566       N  0.65181210  0.96161883  0.57901710     0.74300
O3567       O  0.55320788  0.94409283  0.95879653    -0.39100
O3568       O  0.61102236  0.95963201  0.44050032    -0.39100
O3569       O  0.67865247  0.98073358  0.58382181    -0.39800
O3570       O  0.63155295  0.95108676  0.60054470    -0.39800
C3571       C  0.51632567  0.93353128  0.54311406    -0.12100
C3572       C  0.50266855  0.96080605  0.54495244     0.04900
C3573       C  0.98819158  0.97095273  0.57370906    -0.07400
C3574       C  0.99104389  0.95503493  0.59934226    -0.08100
C3575       C  0.51048556  0.92891877  0.59660183    -0.02700
C3576       C  0.52159157  0.91781042  0.56883872     0.04100
N3577       N  0.53901430  0.89077072  0.56664985     0.66600
H3578       H  0.52445357  0.92479083  0.52176115     0.15500
H3579       H  0.97785009  0.96279387  0.62002008     0.15200
N3580       N  0.97270600  0.99848447  0.57621333     0.74300
O3581       O  0.52060136  0.87377016  0.54980389    -0.39100
O3582       O  0.57606081  0.88501673  0.57834007    -0.39100
O3583       O  0.94105235  0.00413774  0.59344899    -0.39800
O3584       O  0.99639122  0.01752166  0.56643318    -0.39800
loop_ 
_geom_bond_atom_site_label_1 
_geom_bond_atom_site_label_2 
_geom_bond_distance 
_geom_bond_site_symmetry_2 
_ccdc_geom_bond_type 
C1            C2   1.418       .  A
C1         C1798   1.416   1_455  A
C1          C436   1.496       .  S
C2         C1347   1.401   1_554  A
C2          C425   1.475       .  S
C3         C1346   1.404   1_545  A
C3         C1796   1.412   1_455  A
C3          C383   1.501       .  S
C4            C5   1.418       .  A
C4         C1795   1.413       .  A
C4         C2186   1.484       .  S
C5         C1350   1.413   1_545  A
C5          C369   1.482       .  S
C6         C1793   1.416       .  A
C6         C1349   1.413   1_554  A
C6          C408   1.501       .  S
O7          Cr25   1.984       .  S
O7         C1807   1.260       .  A
O8          Cr25   1.996       .  S
O8            C9   1.264       .  A
C9          C310   1.467       .  S
C9           O10   1.260       .  A
O10       Cr1818   1.981       .  S
O11         Cr26   2.019       .  S
O11          C12   1.267       .  A
C12         C296   1.481       .  S
C12          O13   1.258       .  A
O13         Cr27   1.966       .  S
O14         Cr27   2.012       .  S
O14          C15   1.266       .  A
C15         C355   1.474   1_455  S
C15        O1799   1.260   1_455  A
O16         Cr25   2.002       .  S
O16        C1816   1.262       .  A
O17         Cr25   1.979       .  S
O17          C18   1.260       .  A
C18         C324   1.479       .  S
C18          O19   1.268       .  A
O19       Cr1818   2.021       .  S
O20         Cr26   1.982       .  S
O20          C21   1.260       .  A
C21         C341   1.477       .  S
C21          O22   1.267       .  A
O22         Cr27   2.010       .  S
O23         Cr27   1.976       .  S
O23          C24   1.258       .  A
C24         C397   1.462       .  S
C24        O1808   1.262   1_455  A
Cr25       O1820   1.770       .  S
Cr26       O1802   1.979   1_455  S
Cr26       O1811   2.019   1_455  S
Cr26         O28   1.782       .  S
Cr27         O28   1.766       .  S
O28       Cr1817   1.771   1_455  S
C29          C30   1.421       .  A
C29        C1826   1.426       .  A
C29        C2144   1.507       .  S
C30         C479   1.415       .  A
C30         C240   1.492       .  S
C31         C478   1.414   1_554  A
C31        C1824   1.420       .  A
C31         C268   1.492       .  S
C32          C33   1.420   1_655  A
C32        C1823   1.419       .  A
C32         C285   1.485       .  S
C33         C482   1.419   1_554  A
C33         C257   1.514       .  S
C34        C1821   1.424   1_455  A
C34         C481   1.420       .  A
C34         C229   1.485       .  S
O35         Cr53   1.978       .  S
O35          C43   1.260       .  A
O36         Cr53   2.006       .  S
O36          C37   1.265       .  A
C37         C212   1.464       .  S
C37          O38   1.259       .  A
O38         Cr54   1.975       .  S
O39       Cr1846   2.023       .  S
O39          C40   1.269       .  A
C40         C198   1.495       .  S
C40          O41   1.259       .  A
O41         Cr55   1.981       .  S
O42         Cr55   1.991       .  S
O42        C1835   1.261       .  A
C43         C439   1.465       .  S
C43        O1834   1.263   1_455  A
O44         Cr53   1.993       .  S
O44          C52   1.261   1_455  A
O45         Cr53   1.980       .  S
O45          C46   1.259       .  A
C46         C170   1.491       .  S
C46          O47   1.270       .  A
O47         Cr54   2.026       .  S
O48       Cr1846   1.978       .  S
O48          C49   1.260       .  A
C49         C184   1.470       .  S
C49          O50   1.265       .  A
O50         Cr55   2.004       .  S
O51         Cr55   1.977       .  S
O51        C1844   1.260       .  A
C52         C282   1.458       .  S
C52        O1843   1.260       .  A
Cr53         O56   1.770   1_455  S
Cr54       O1831   2.024   1_455  S
Cr54       O1840   1.980   1_455  S
Cr54         O56   1.772   1_455  S
Cr55       O1848   1.771       .  S
O56       Cr1847   1.770       .  S
C57          C58   1.417       .  A
C57          C62   1.414       .  A
C57         C159   1.481       .  S
C58         C955   1.413   1_545  A
C58         C338   1.498       .  S
C59          C60   1.421       .  A
C59         C954   1.413       .  A
C59         C215   1.485       .  S
C60          C61   1.421       .  A
C60         C142   1.499       .  S
C61         C958   1.408       .  A
C61         C201   1.489       .  S
C62         C957   1.409   1_545  A
C62         C327   1.496       .  S
O63         Cr81   2.009       .  S
O63          C71   1.266       .  A
O64         Cr81   1.964       .  S
O64          C65   1.260       .  A
C65         C271   1.484       .  S
C65          O66   1.269       .  A
O66         Cr82   2.017       .  S
O67         Cr82   2.006       .  S
O67          C68   1.264       .  A
C68         C254   1.496       .  S
C68          O69   1.269       .  A
O69         Cr83   2.027       .  S
O70         Cr83   1.972       .  S
O70          C71   1.257       .  A
C71         C128   1.463       .  S
O72         Cr81   1.969       .  S
O72          C80   1.256       .  A
O73         Cr81   2.011       .  S
O73          C74   1.265       .  A
C74         C411   1.483       .  S
C74          O75   1.263       .  A
O75         Cr82   2.001       .  S
O76         Cr82   2.014       .  S
O76          C77   1.269       .  A
C77         C422   1.477       .  S
C77          O78   1.252       .  A
O78         Cr83   1.948       .  S
O79         Cr83   2.013       .  S
O79          C80   1.267       .  A
C80         C145   1.468       .  S
Cr81         O84   1.765       .  S
Cr82         O84   1.769       .  S
Cr83         O84   1.765       .  S
C85          C86   1.423       .  A
C85          C90   1.422       .  A
C85         C114   1.487       .  S
C86          C87   1.417       .  A
C86         C313   1.494       .  S
C87          C88   1.411       .  A
C87         C187   1.492       .  S
C88          C89   1.411       .  A
C88         C131   1.477       .  S
C89          C90   1.405       .  A
C89         C173   1.490       .  S
C90         C299   1.491       .  S
O91        Cr109   1.964       .  S
O91          C99   1.255       .  A
O92        Cr109   2.013       .  S
O92          C93   1.268       .  A
C93         C380   1.475       .  S
C93          O94   1.260       .  A
O94        Cr110   1.979       .  S
O95        Cr110   2.008       .  S
O95          C96   1.267       .  A
C96         C366   1.479       .  S
C96          O97   1.256       .  A
O97        Cr111   1.973       .  S
O98        Cr111   1.994       .  S
O98          C99   1.261       .  A
C99         C156   1.452       .  S
O100       Cr109   2.009       .  S
O100        C108   1.266       .  A
O101       Cr109   1.975       .  S
O101        C102   1.258       .  A
C102        C226   1.480       .  S
C102        O103   1.268       .  A
O103       Cr110   2.010       .  S
O104       Cr110   1.977       .  S
O104        C105   1.260       .  A
C105        C243   1.466       .  S
C105        O106   1.265       .  A
O106       Cr111   1.998       .  S
O107       Cr111   1.975       .  S
O107        C108   1.258       .  A
C108        C117   1.467       .  S
Cr109       O112   1.764       .  S
Cr110       O112   1.771       .  S
Cr111       O112   1.768       .  S
C113        C114   1.403       .  A
C113        C118   1.403       .  A
C113        H120   1.083       .  S
C114        C115   1.414       .  A
C115        C116   1.401       .  A
C115        N122   1.434       .  S
C116        C117   1.401       .  A
C116        H121   1.085       .  S
C117        C118   1.408       .  A
C118        N119   1.438       .  S
N119        O123   1.262       .  A
N119        O124   1.262       .  A
N122        O126   1.260       .  A
N122        O125   1.263       .  A
C127        C128   1.399       .  A
C127        C132   1.401       .  A
C127        H134   1.084       .  S
C128        C129   1.413       .  A
C129        C130   1.394       .  A
C129        N136   1.441       .  S
C130        C131   1.394       .  A
C130        H135   1.077       .  S
C131        C132   1.415       .  A
C132        N133   1.437       .  S
N133        O137   1.262       .  A
N133        O138   1.262       .  A
N136        O140   1.263       .  A
N136        O139   1.261       .  A
C141        C142   1.402       .  A
C141        C146   1.400       .  A
C141        H148   1.094       .  S
C142        C143   1.419       .  A
C143        C144   1.396       .  A
C143        N150   1.437       .  S
C144        C145   1.390       .  A
C144        H149   1.132       .  S
C145        C146   1.416       .  A
C146        N147   1.444       .  S
N147        O151   1.261       .  A
N147        O152   1.263       .  A
N150        O154   1.263       .  A
N150        O153   1.262       .  A
C155        C156   1.392       .  A
C155        C160   1.394       .  A
C155        H162   1.080       .  S
C156        C157   1.406       .  A
C157        C158   1.399       .  A
C157        N164   1.435       .  S
C158        C159   1.403       .  A
C158        H163   1.083       .  S
C159        C160   1.414       .  A
C160        N161   1.435       .  S
N161       O1061   1.262       .  A
N161       O1062   1.261   1_545  A
N164        O168   1.262       .  A
N164        O167   1.261       .  A
O165       N1057   1.263       .  A
O166       N1057   1.262       .  A
C169        C170   1.406       .  A
C169        C174   1.403       .  A
C169        H176   1.084       .  S
C170        C171   1.416       .  A
C171        C172   1.404       .  A
C171        N178   1.428       .  S
C172        C173   1.401       .  A
C172        H177   1.083       .  S
C173        C174   1.415       .  A
C174        N175   1.435       .  S
N175        O179   1.260       .  A
N175        O180   1.260       .  A
N178        O182   1.262       .  A
N178        O181   1.262       .  A
C183        C184   1.402       .  A
C183        C188   1.403       .  A
C183        H190   1.084       .  S
C184        C185   1.409       .  A
C185        C186   1.400       .  A
C185        N192   1.436       .  S
C186        C187   1.402       .  A
C186        H191   1.082       .  S
C187        C188   1.416       .  A
C188        N189   1.431       .  S
N189        O193   1.260       .  A
N189        O194   1.263       .  A
N192        O196   1.262       .  A
N192        O195   1.262       .  A
C197        C198   1.413       .  A
C197        C202   1.407       .  A
C197        H204   1.084       .  S
C198        C199   1.416       .  A
C199        C200   1.400       .  A
C199        N206   1.428       .  S
C200        C201   1.401       .  A
C200        H205   1.085       .  S
C201        C202   1.404       .  A
C202       N1099   1.428       .  S
N203       C1098   1.428   1_545  S
N203        O207   1.262       .  A
N203        O208   1.261       .  A
N206        O210   1.262       .  A
N206        O209   1.262       .  A
C211        C212   1.398       .  A
C211        C216   1.398       .  A
C211        H218   1.084       .  S
C212        C213   1.408       .  A
C213        C214   1.402       .  A
C213        N220   1.432       .  S
C214        C215   1.403       .  A
C214        H219   1.081       .  S
C215        C216   1.414       .  A
C216        N217   1.432       .  S
N217        O221   1.261       .  A
N217        O222   1.260       .  A
N220        O224   1.262       .  A
N220        O223   1.262       .  A
C225        C226   1.398       .  A
C225        C230   1.402       .  A
C225        H232   1.083       .  S
C226        C227   1.410       .  A
C227        C676   1.401       .  A
C227        N682   1.426       .  S
C228        C675   1.401       .  A
C228        C677   1.401       .  A
C228        H233   1.084       .  S
C229        C230   1.426       .  A
C229        C676   1.401       .  A
C230        N231   1.446       .  S
N231        O235   1.263       .  A
N231        O236   1.259       .  A
N234        C675   1.426       .  S
N234        O238   1.261       .  A
N234        O237   1.262       .  A
C239        C244   1.398       .  A
C239        C688   1.405   1_554  A
C239        H246   1.080       .  S
C240        C241   1.414       .  A
C240        C687   1.405       .  A
C241        C242   1.402       .  A
C241        N248   1.432       .  S
C242        C243   1.401       .  A
C242        H247   1.083       .  S
C243        C692   1.403       .  A
C244        C691   1.403   1_554  A
C244        N245   1.429       .  S
N245        O249   1.262       .  A
N245        O250   1.262       .  A
N248        O252   1.262       .  A
N248        O251   1.260       .  A
C253        C254   1.407       .  A
C253        C258   1.417       .  A
C253        H260   1.084       .  S
C254        C255   1.411       .  A
C255        C256   1.408       .  A
C255        N262   1.436   1_554  S
C256        C257   1.408       .  A
C256        H261   1.084   1_554  S
C257        C258   1.420       .  A
C258        N259   1.433       .  S
N259        O263   1.263       .  A
N259        O264   1.259       .  A
N262        O266   1.263       .  A
N262        O713   1.262       .  A
O265        N710   1.263       .  A
C267        C268   1.402       .  A
C267        C272   1.397       .  A
C267        H274   1.081   1_554  S
C268        C269   1.413       .  A
C269        C270   1.401       .  A
C269        N724   1.430       .  S
C270        C271   1.406       .  A
C270        H723   1.084       .  S
C271        C272   1.411       .  A
C272        N273   1.429   1_554  S
N273        O277   1.261       .  A
N273        O278   1.262       .  A
H275        C718   1.084       .  S
N276        C717   1.430       .  S
N276        O280   1.260       .  A
N276        O279   1.262       .  A
C281        C282   1.395       .  A
C281        C286   1.400   1_655  A
C281        H288   1.083   1_655  S
C282       C2075   1.408       .  A
C283        C284   1.400       .  A
C283       C2074   1.410       .  A
C283        N290   1.435       .  S
C284       C2077   1.404       .  A
C284        H289   1.082       .  S
C285        C286   1.416   1_655  A
C285       C2076   1.402       .  A
C286        N287   1.436       .  S
N287        O291   1.263       .  A
N287        O292   1.261   1_455  A
N290        O294   1.262       .  A
N290        O293   1.262       .  A
C295        C296   1.403       .  A
C295        C300   1.399       .  A
C295        H302   1.084       .  S
C296        C297   1.410       .  A
C297        C298   1.400       .  A
C297        N304   1.428       .  S
C298        C299   1.403       .  A
C298        H303   1.083       .  S
C299        C300   1.410       .  A
C300        N301   1.424       .  S
N301        O305   1.262       .  A
N301        O306   1.260       .  A
N304        O308   1.261       .  A
N304        O307   1.261       .  A
C309        C310   1.400       .  A
C309        C314   1.403       .  A
C309        H316   1.084       .  S
C310        C311   1.402       .  A
C311        C312   1.398       .  A
C311        N318   1.429       .  S
C312        C313   1.406       .  A
C312        H317   1.080       .  S
C313        C314   1.417       .  A
C314        N315   1.432       .  S
N315        O319   1.262       .  A
N315        O320   1.260       .  A
N318        O322   1.262       .  A
N318        O321   1.262       .  A
C323        C324   1.401       .  A
C323        C328   1.405       .  A
C323        H330   1.084       .  S
C324        C325   1.410       .  A
C325        C326   1.402       .  A
C325        N332   1.431       .  S
C326        C327   1.402       .  A
C326       H1227   1.080       .  S
C327        C328   1.417       .  A
C328        N329   1.435       .  S
N329        O333   1.263       .  A
N329        O334   1.262       .  A
H331       C1222   1.081       .  S
N332        O336   1.262       .  A
N332        O335   1.262       .  A
C337        C338   1.405       .  A
C337        C342   1.402       .  A
C337        H344   1.084       .  S
C338        C339   1.415       .  A
C339        C340   1.404       .  A
C339        N346   1.429       .  S
C340        C341   1.401       .  A
C340        H345   1.084       .  S
C341        C342   1.408       .  A
C342        N343   1.429       .  S
N343        O347   1.261       .  A
N343        O348   1.262       .  A
N346        O350   1.260   1_545  A
N346        O349   1.262       .  A
C351        C352   1.411   1_455  A
C351        C356   1.403       .  A
C351        H358   1.084       .  S
C352       C2145   1.426       .  A
C352       C1821   1.505       .  S
C353        C354   1.409       .  A
C353       C2144   1.426       .  A
C353        N360   1.442       .  S
C354       C2147   1.398       .  A
C354        H359   1.083       .  S
C355        C356   1.401   1_655  A
C355       C2146   1.399       .  A
C356        N357   1.429       .  S
N357        O361   1.262   1_455  A
N357        O362   1.261       .  A
N360        O364   1.259       .  A
N360        O363   1.263       .  A
C365        C366   1.397       .  A
C365        C818   1.393       .  A
C365        H820   1.084       .  S
C366        C367   1.415       .  A
C367        C368   1.403       .  A
C367        N374   1.426       .  S
C368        C369   1.399       .  A
C368        H373   1.081       .  S
C369        C818   1.411       .  A
C370        C813   1.392       .  A
C370        C817   1.411       .  A
C370        N371   1.425   1_556  S
N371        O375   1.261       .  A
N371       O1272   1.260       .  A
H372        C813   1.084   1_554  S
N374        O378   1.262       .  A
N374        O377   1.262       .  A
O376       N1267   1.260       .  A
C379        C380   1.397       .  A
C379        C832   1.401       .  A
C379        H834   1.084       .  S
C380        C381   1.408       .  A
C381        C382   1.405       .  A
C381        N388   1.428       .  S
C382        C383   1.406       .  A
C382        H387   1.082       .  S
C383        C832   1.417       .  A
C384        C827   1.399   1_554  A
C384        C831   1.416   1_554  A
C384        N385   1.430       .  S
N385        O389   1.262       .  A
N385        O390   1.260       .  A
H386        C827   1.084   1_554  S
N388        O392   1.262       .  A
N388        O391   1.262       .  A
C393        C394   1.399   1_455  A
C393        C398   1.400       .  A
C393        H400   1.082       .  S
C394       C2187   1.415       .  A
C394       C1796   1.484       .  S
C395        C396   1.400       .  A
C395       C2186   1.415       .  A
C395        N402   1.434   1_545  S
C396       C2189   1.397       .  A
C396        H401   1.083       .  S
C397        C398   1.414       .  A
C397       C2188   1.396   1_455  A
C398        N399   1.439       .  S
N399        O403   1.263       .  A
N399        O404   1.262       .  A
N402        O406   1.261       .  A
N402        O405   1.262       .  A
C407        C408   1.405       .  A
C407        C412   1.410       .  A
C407       H1310   1.082       .  S
C408        C409   1.415   1_554  A
C409        C410   1.402   1_556  A
C409        N416   1.431       .  S
C410        C411   1.397       .  A
C410        H415   1.082   1_554  S
C411        C412   1.412       .  A
C412        N413   1.428       .  S
N413        O417   1.262       .  A
N413        O418   1.262       .  A
H414       C1303   1.081       .  S
N416        O420   1.261       .  A
N416        O419   1.262       .  A
C421        C422   1.400   1_556  A
C421        C426   1.396       .  A
C421        H428   1.084       .  S
C422        C423   1.417       .  A
C423        C424   1.390       .  A
C423        N430   1.426       .  S
C424        C425   1.392       .  A
C424       H1325   1.081       .  S
C425        C426   1.412   1_554  A
C426        N427   1.428       .  S
N427        O879   1.260       .  A
N427        O432   1.262       .  A
H429       C1320   1.083       .  S
N430        O434   1.262       .  A
N430        O433   1.262       .  A
O431        N875   1.260       .  A
C435        C436   1.404       .  A
C435        C440   1.407       .  A
C435        H442   1.082       .  S
C436       C2229   1.415   1_455  A
C437        C438   1.397       .  A
C437       C2228   1.414       .  A
C437        N444   1.432       .  S
C438       C2231   1.395       .  A
C438        H443   1.084       .  S
C439        C440   1.416       .  A
C439       C2230   1.395   1_455  A
C440        N441   1.442       .  S
N441        O445   1.262       .  A
N441        O446   1.262       .  A
N444        O448   1.262       .  A
N444        O447   1.263       .  A
C449        C450   1.418       .  A
C449       C2246   1.416   1_455  A
C449        C884   1.494       .  S
C450        C899   1.403       .  A
C450        C873   1.478       .  S
C451        C898   1.404   1_546  A
C451       C2244   1.412   1_455  A
C451        C831   1.497       .  S
C452       C2243   1.413       .  A
C452        C453   1.417       .  A
C452       C2634   1.486       .  S
C453        C902   1.413   1_546  A
C453        C817   1.482       .  S
C454       C2241   1.419       .  A
C454        C901   1.417       .  A
C454        C856   1.503       .  S
O455       Cr473   1.982       .  S
O455       C2255   1.260       .  A
O456       Cr473   1.999       .  S
O456        C457   1.265       .  A
C457        C758   1.466       .  S
C457        O458   1.259       .  A
O458      Cr2266   1.979       .  S
O459       Cr474   2.019       .  S
O459        C460   1.267       .  A
C460        C744   1.482       .  S
C460        O461   1.258       .  A
O461       Cr475   1.962       .  S
O462       Cr475   2.008       .  S
O462        C463   1.264       .  A
C463        C803   1.473   1_455  S
C463       O2247   1.260   1_455  A
O464       Cr473   2.002       .  S
O464       C2264   1.262       .  A
O465       Cr473   1.980       .  S
O465        C466   1.260       .  A
C466        C772   1.478       .  S
C466        O467   1.268       .  A
O467      Cr2266   2.020       .  S
O468       Cr474   1.984       .  S
O468        C469   1.260       .  A
C469        C789   1.476       .  S
C469        O470   1.266       .  A
O470       Cr475   2.007       .  S
O471       Cr475   1.977       .  S
O471        C472   1.259       .  A
C472        C845   1.464       .  S
C472       O2256   1.263   1_455  A
Cr473      O2268   1.770       .  S
Cr474      O2250   1.977   1_455  S
Cr474      O2259   2.019   1_455  S
Cr474       O476   1.782       .  S
Cr475       O476   1.766       .  S
O476      Cr2265   1.770   1_455  S
C477        C478   1.420       .  A
C477       C2274   1.424       .  A
C477       C2592   1.503       .  S
C478        C688   1.493       .  S
C479       C2272   1.420       .  A
C479        C716   1.494       .  S
C480       C2271   1.421       .  A
C480        C481   1.421   1_655  A
C480        C733   1.488       .  S
C481        C705   1.515       .  S
C482       C2269   1.424   1_455  A
C482        C677   1.484       .  S
O483       Cr501   1.982       .  S
O483        C491   1.261       .  A
O484       Cr501   2.002       .  S
O484        C485   1.264       .  A
C485        C660   1.461       .  S
C485        O486   1.259       .  A
O486       Cr502   1.974   1_455  S
O487      Cr2294   2.017       .  S
O487        C488   1.267       .  A
C488        C646   1.493       .  S
C488        O489   1.259       .  A
O489       Cr503   1.979       .  S
O490       Cr503   1.995       .  S
O490       C2283   1.262       .  A
C491        C887   1.464       .  S
C491       O2282   1.261   1_455  A
O492       Cr501   1.993       .  S
O492        C500   1.261   1_455  A
O493       Cr501   1.982       .  S
O493        C494   1.260       .  A
C494        C618   1.489       .  S
C494        O495   1.269       .  A
O495       Cr502   2.024   1_455  S
O496      Cr2294   1.980       .  S
O496        C497   1.260       .  A
C497        C632   1.469       .  S
C497        O498   1.265       .  A
O498       Cr503   2.005       .  S
O499       Cr503   1.979       .  S
O499       C2292   1.260       .  A
C500        C730   1.458       .  S
C500       O2291   1.261       .  A
Cr501       O504   1.769   1_455  S
Cr502      O2279   2.020       .  S
Cr502      O2288   1.976       .  S
Cr502       O504   1.772       .  S
Cr503      O2296   1.769       .  S
O504      Cr2295   1.769       .  S
C505        C506   1.414       .  A
C505        C510   1.415       .  A
C505        C607   1.482       .  S
C506       C1403   1.410   1_545  A
C506        C786   1.495       .  S
C507       C1402   1.408       .  A
C507        C508   1.419       .  A
C507        C663   1.484       .  S
C508        C509   1.422       .  A
C508        C590   1.499       .  S
C509       C1406   1.408       .  A
C509        C649   1.485       .  S
C510       C1405   1.410   1_545  A
C510        C775   1.495       .  S
O511       Cr529   2.003       .  S
O511        C519   1.265       .  A
O512       Cr529   1.961       .  S
O512        C513   1.259       .  A
C513        C719   1.484       .  S
C513        O514   1.269       .  A
O514       Cr530   2.020       .  S
O515       Cr530   2.003       .  S
O515        C516   1.263       .  A
C516        C702   1.494       .  S
C516        O517   1.269       .  A
O517       Cr531   2.027       .  S
O518       Cr531   1.978       .  S
O518        C519   1.258       .  A
C519        C576   1.463       .  S
O520       Cr529   1.970       .  S
O520        C528   1.257       .  A
O521       Cr529   2.010       .  S
O521        C522   1.264       .  A
C522        C859   1.481       .  S
C522        O523   1.262       .  A
O523       Cr530   1.999       .  S
O524       Cr530   2.013       .  S
O524        C525   1.269       .  A
C525        C870   1.480       .  S
C525        O526   1.254       .  A
O526       Cr531   1.957       .  S
O527       Cr531   2.016       .  S
O527        C528   1.267       .  A
C528        C593   1.471       .  S
Cr529       O532   1.765       .  S
Cr530       O532   1.769       .  S
Cr531       O532   1.766       .  S
C533        C534   1.423       .  A
C533        C538   1.421       .  A
C533        C562   1.486       .  S
C534        C535   1.413       .  A
C534        C761   1.491       .  S
C535        C536   1.409       .  A
C535        C635   1.489       .  S
C536        C537   1.410       .  A
C536        C579   1.476       .  S
C537        C538   1.405       .  A
C537        C621   1.490       .  S
C538        C747   1.489       .  S
O539       Cr557   1.962       .  S
O539        C547   1.255       .  A
O540       Cr557   2.008       .  S
O540        C541   1.267       .  A
C541        C828   1.471       .  S
C541        O542   1.260       .  A
O542       Cr558   1.978       .  S
O543       Cr558   2.003       .  S
O543        C544   1.266       .  A
C544        C814   1.480       .  S
C544        O545   1.257       .  A
O545       Cr559   1.978       .  S
O546       Cr559   1.997       .  S
O546        C547   1.263       .  A
C547        C604   1.453       .  S
O548       Cr557   2.002       .  S
O548        C556   1.264       .  A
O549       Cr557   1.978       .  S
O549        C550   1.258       .  A
C550        C674   1.479       .  S
C550        O551   1.267       .  A
O551       Cr558   2.007       .  S
O552       Cr558   1.975       .  S
O552        C553   1.260       .  A
C553        C691   1.466       .  S
C553        O554   1.267       .  A
O554       Cr559   2.002       .  S
O555       Cr559   1.979       .  S
O555        C556   1.258       .  A
C556        C565   1.467       .  S
Cr557       O560   1.764       .  S
Cr558       O560   1.770       .  S
Cr559       O560   1.768       .  S
C561        C562   1.403       .  A
C561        C566   1.403       .  A
C561        H568   1.084       .  S
C562        C563   1.412       .  A
C563        C564   1.399       .  A
C563        N570   1.432       .  S
C564        C565   1.400       .  A
C564        H569   1.085       .  S
C565        C566   1.408       .  A
C566        N567   1.436       .  S
N567        O571   1.261       .  A
N567        O572   1.262       .  A
N570        O574   1.259       .  A
N570        O573   1.262       .  A
C575        C576   1.400       .  A
C575        C580   1.402       .  A
C575        H582   1.084       .  S
C576        C577   1.411       .  A
C577        C578   1.394       .  A
C577        N584   1.437       .  S
C578        C579   1.393       .  A
C578        H583   1.078       .  S
C579        C580   1.413       .  A
C580        N581   1.434       .  S
N581        O585   1.262       .  A
N581        O586   1.262       .  A
N584        O588   1.262       .  A
N584        O587   1.262       .  A
C589        C590   1.405       .  A
C589        C594   1.404       .  A
C589        H596   1.080       .  S
C590        C591   1.418       .  A
C591        C592   1.400       .  A
C591        N598   1.439       .  S
C592        C593   1.395       .  A
C592        H597   1.083       .  S
C593        C594   1.414       .  A
C594        N595   1.442       .  S
N595        O599   1.262       .  A
N595        O600   1.263       .  A
N598        O602   1.263       .  A
N598        O601   1.262       .  A
C603        C604   1.394       .  A
C603        C608   1.396       .  A
C603        H610   1.081       .  S
C604        C605   1.407       .  A
C605        C606   1.398       .  A
C605        N612   1.435       .  S
C606        C607   1.403       .  A
C606        H611   1.082       .  S
C607        C608   1.415       .  A
C608        N609   1.436       .  S
N609       O1509   1.262   1_545  A
N609       O1510   1.262   1_545  A
N612        O616   1.263       .  A
N612        O615   1.262       .  A
O613       N1505   1.262       .  A
O614       N1505   1.261       .  A
C617        C618   1.405       .  A
C617        C622   1.403       .  A
C617        H624   1.084       .  S
C618        C619   1.415       .  A
C619        C620   1.404       .  A
C619        N626   1.428       .  S
C620        C621   1.400       .  A
C620        H625   1.083       .  S
C621        C622   1.416       .  A
C622        N623   1.435       .  S
N623        O627   1.260       .  A
N623        O628   1.261       .  A
N626        O630   1.262       .  A
N626        O629   1.262       .  A
C631        C632   1.402       .  A
C631        C636   1.404       .  A
C631        H638   1.084       .  S
C632        C633   1.405       .  A
C633        C634   1.397       .  A
C633        N640   1.429       .  S
C634        C635   1.403       .  A
C634        H639   1.084       .  S
C635        C636   1.414       .  A
C636        N637   1.428       .  S
N637        O641   1.261       .  A
N637        O642   1.262       .  A
N640        O644   1.262       .  A
N640        O643   1.262       .  A
C645        C646   1.413       .  A
C645        C650   1.405       .  A
C645        H652   1.083       .  S
C646        C647   1.416       .  A
C647        C648   1.399       .  A
C647        N654   1.431       .  S
C648        C649   1.401       .  A
C648        H653   1.084       .  S
C649        C650   1.404       .  A
C650       N1547   1.429       .  S
N651       C1546   1.428   1_545  S
N651        O655   1.262       .  A
N651        O656   1.261       .  A
N654        O658   1.262       .  A
N654        O657   1.262       .  A
C659        C660   1.398       .  A
C659        C664   1.397       .  A
C659        H666   1.084       .  S
C660        C661   1.407       .  A
C661        C662   1.400       .  A
C661        N668   1.432       .  S
C662        C663   1.403       .  A
C662        H667   1.080       .  S
C663        C664   1.412       .  A
C664        N665   1.431       .  S
N665        O669   1.261       .  A
N665        O670   1.261       .  A
N668        O672   1.262       .  A
N668        O671   1.262       .  A
C673        C674   1.398       .  A
C673        C678   1.401   1_556  A
C673        H680   1.083   1_556  S
C674        C675   1.409       .  A
C676        H681   1.084       .  S
C677        C678   1.425   1_556  A
C678        N679   1.446       .  S
N679        O683   1.263       .  A
N679        O684   1.259       .  A
N682        O686   1.261       .  A
N682        O685   1.262       .  A
C687        C692   1.397       .  A
C687        H694   1.080       .  S
C688        C689   1.415       .  A
C689        C690   1.401       .  A
C689        N696   1.433       .  S
C690        C691   1.400       .  A
C690        H695   1.082       .  S
C692        N693   1.429       .  S
N693        O697   1.262       .  A
N693        O698   1.262       .  A
N696        O700   1.262       .  A
N696        O699   1.260       .  A
C701        C702   1.406       .  A
C701        C706   1.416       .  A
C701        H708   1.084       .  S
C702        C703   1.411       .  A
C703        C704   1.408       .  A
C703        N710   1.436       .  S
C704        C705   1.409       .  A
C704        H709   1.084       .  S
C705        C706   1.421       .  A
C706        N707   1.433       .  S
N707        O711   1.263       .  A
N707        O712   1.259       .  A
N710        O714   1.263       .  A
C715        C716   1.404       .  A
C715        C720   1.398       .  A
C715        H722   1.081       .  S
C716        C717   1.414       .  A
C717        C718   1.400       .  A
C718        C719   1.406       .  A
C719        C720   1.410       .  A
C720        N721   1.429       .  S
N721        O725   1.261       .  A
N721        O726   1.262       .  A
N724        O728   1.260       .  A
N724        O727   1.262       .  A
C729        C730   1.394   1_455  A
C729        C734   1.398       .  A
C729        H736   1.083       .  S
C730       C2523   1.409       .  A
C731       C2522   1.408       .  A
C731        C732   1.399       .  A
C731        N738   1.433       .  S
C732       C2525   1.404       .  A
C732        H737   1.083       .  S
C733       C2524   1.404       .  A
C733        C734   1.415   1_655  A
C734        N735   1.433       .  S
N735        O739   1.263       .  A
N735        O740   1.261   1_455  A
N738        O742   1.262       .  A
N738        O741   1.262       .  A
C743        C744   1.404       .  A
C743        C748   1.398       .  A
C743        H750   1.084       .  S
C744        C745   1.410       .  A
C745        C746   1.400       .  A
C745        N752   1.428       .  S
C746        C747   1.403       .  A
C746        H751   1.084       .  S
C747        C748   1.409       .  A
C748        N749   1.425       .  S
N749        O753   1.262       .  A
N749        O754   1.260       .  A
N752        O756   1.262       .  A
N752        O755   1.262       .  A
C757        C758   1.400       .  A
C757        C762   1.404       .  A
C757        H764   1.084       .  S
C758        C759   1.403       .  A
C759        C760   1.399       .  A
C759        N766   1.429       .  S
C760        C761   1.404       .  A
C760        H765   1.083       .  S
C761        C762   1.416       .  A
C762        N763   1.433       .  S
N763        O767   1.262       .  A
N763        O768   1.260       .  A
N766        O770   1.262       .  A
N766        O769   1.261       .  A
C771        C772   1.401       .  A
C771        C776   1.403       .  A
C771        H778   1.083       .  S
C772        C773   1.410       .  A
C773        C774   1.403       .  A
C773        N780   1.431       .  S
C774        C775   1.403       .  A
C774       H1675   1.080       .  S
C775        C776   1.415       .  A
C776        N777   1.434       .  S
N777        O781   1.262       .  A
N777        O782   1.262       .  A
H779       C1670   1.079       .  S
N780        O784   1.262       .  A
N780        O783   1.262       .  A
C785        C786   1.405       .  A
C785        C790   1.402       .  A
C785        H792   1.084       .  S
C786        C787   1.413       .  A
C787        C788   1.403       .  A
C787        N794   1.428       .  S
C788        C789   1.402       .  A
C788        H793   1.084       .  S
C789        C790   1.409       .  A
C790        N791   1.430       .  S
N791        O795   1.262       .  A
N791        O796   1.262       .  A
N794        O798   1.260   1_545  A
N794        O797   1.262       .  A
C799        C800   1.411       .  A
C799        C804   1.403       .  A
C799        H806   1.084       .  S
C800       C2593   1.426   1_455  A
C800       C2269   1.505   1_455  S
C801       C2592   1.426       .  A
C801        C802   1.407       .  A
C801        N808   1.443       .  S
C802       C2595   1.398       .  A
C802        H807   1.084       .  S
C803       C2594   1.399       .  A
C803        C804   1.402   1_655  A
C804        N805   1.431       .  S
N805        O809   1.262       .  A
N805        O810   1.262       .  A
N808        O812   1.258   1_556  A
N808        O811   1.263       .  A
C813        C814   1.397       .  A
C814        C815   1.415       .  A
C815        C816   1.404       .  A
C815        N822   1.427       .  S
C816        C817   1.399       .  A
C816        H821   1.082   1_545  S
C818        N819   1.426       .  S
N819        O823   1.260       .  A
N819       O1720   1.262       .  A
N822        O826   1.262       .  A
N822        O825   1.262       .  A
O824       N1715   1.260       .  A
C827        C828   1.395       .  A
C828        C829   1.409       .  A
C829        C830   1.404       .  A
C829        N836   1.429       .  S
C830        C831   1.406       .  A
C830        H835   1.083       .  S
C832        N833   1.429       .  S
N833        O837   1.262       .  A
N833        O838   1.260       .  A
N836        O840   1.262       .  A
N836        O839   1.262       .  A
C841        C842   1.400   1_455  A
C841        C846   1.400       .  A
C841        H848   1.082       .  S
C842       C2635   1.415       .  A
C842       C2244   1.487       .  S
C843       C2634   1.416       .  A
C843        C844   1.399       .  A
C843        N850   1.433   1_545  S
C844       C2637   1.395       .  A
C844        H849   1.083       .  S
C845       C2636   1.396   1_455  A
C845        C846   1.414       .  A
C846        N847   1.439       .  S
N847        O851   1.263       .  A
N847        O852   1.262       .  A
N850        O854   1.260       .  A
N850        O853   1.263       .  A
C855        C856   1.406       .  A
C855        C860   1.411       .  A
C855       H1758   1.080       .  S
C856        C857   1.416       .  A
C857        C858   1.401       .  A
C857        N864   1.430       .  S
C858        C859   1.396       .  A
C858        H863   1.083       .  S
C859        C860   1.411       .  A
C860        N861   1.429       .  S
N861        O865   1.262       .  A
N861        O866   1.262       .  A
H862       C1751   1.080       .  S
N864        O868   1.262       .  A
N864        O867   1.263       .  A
C869        C870   1.401       .  A
C869        C874   1.396       .  A
C869        H876   1.084       .  S
C870        C871   1.416       .  A
C871        C872   1.394       .  A
C871        N878   1.425       .  S
C872        C873   1.395       .  A
C872       H1773   1.082       .  S
C873        C874   1.411       .  A
C874        N875   1.428       .  S
N875        O880   1.262       .  A
H877       C1768   1.083       .  S
N878        O882   1.262       .  A
N878        O881   1.262       .  A
C883        C884   1.404       .  A
C883        C888   1.406       .  A
C883        H890   1.082       .  S
C884       C2677   1.415   1_455  A
C885       C2676   1.416       .  A
C885        C886   1.400       .  A
C885        N892   1.432       .  S
C886       C2679   1.397       .  A
C886        H891   1.084       .  S
C887       C2678   1.396   1_455  A
C887        C888   1.414       .  A
C888        N889   1.441       .  S
N889        O893   1.262       .  A
N889        O894   1.262       .  A
N892        O896   1.262       .  A
N892        O895   1.263       .  A
C897        C898   1.420       .  A
C897       C2694   1.419   1_455  A
C897       C1332   1.497       .  S
C898       C1321   1.480       .  S
C899       C2692   1.412   1_455  A
C899       C1279   1.497       .  S
C900       C2691   1.413       .  A
C900        C901   1.419       .  A
C900       C3082   1.489       .  S
C901       C1265   1.484       .  S
C902       C2689   1.416       .  A
C902       C1304   1.499       .  S
O903       Cr921   1.981       .  S
O903       C2703   1.259       .  A
O904       Cr921   2.001       .  S
O904        C905   1.265       .  A
C905       C1206   1.468       .  S
C905        O906   1.259       .  A
O906      Cr2714   1.981       .  S
O907       Cr922   2.021       .  S
O907        C908   1.268       .  A
C908       C1192   1.486       .  S
C908        O909   1.258       .  A
O909       Cr923   1.968       .  S
O910       Cr923   2.011       .  S
O910        C911   1.266   1_455  A
C911       C1251   1.472       .  S
C911       O2695   1.260       .  A
O912       Cr921   2.006       .  S
O912       C2712   1.263       .  A
O913       Cr921   1.979       .  S
O913        C914   1.260       .  A
C914       C1220   1.477       .  S
C914        O915   1.268       .  A
O915      Cr2714   2.018       .  S
O916       Cr922   1.983       .  S
O916        C917   1.260       .  A
C917       C1237   1.481       .  S
C917        O918   1.268       .  A
O918       Cr923   2.012       .  S
O919       Cr923   1.981       .  S
O919        C920   1.259       .  A
C920       C1293   1.466       .  S
C920       O2704   1.261   1_455  A
Cr921      O2716   1.771       .  S
Cr922      O2698   1.982   1_455  S
Cr922      O2707   2.023   1_455  S
Cr922       O924   1.781       .  S
Cr923       O924   1.767       .  S
O924      Cr2713   1.772   1_455  S
C925        C926   1.420       .  A
C925       C2722   1.426       .  A
C925       C3040   1.504       .  S
C926       C1375   1.413       .  A
C926       C1136   1.495       .  S
C927       C1374   1.416   1_554  A
C927       C2720   1.421       .  A
C927       C1164   1.493       .  S
C928       C2719   1.421       .  A
C928        C929   1.421   1_655  A
C928       C1181   1.488       .  S
C929       C1378   1.421   1_554  A
C929       C1153   1.517       .  S
C930       C2717   1.425   1_455  A
C930       C1377   1.421       .  A
C930       C1125   1.486       .  S
O931       Cr949   1.980       .  S
O931        C939   1.261       .  A
O932       Cr949   2.004       .  S
O932        C933   1.264       .  A
C933       C1108   1.467       .  S
C933        O934   1.261       .  A
O934       Cr950   1.981   1_455  S
O935      Cr2742   2.023       .  S
O935        C936   1.268       .  A
C936       C1094   1.499       .  S
C936        O937   1.260       .  A
O937       Cr951   1.984       .  S
O938       Cr951   1.994       .  S
O938       C2731   1.262       .  A
C939       C1335   1.465       .  S
C939       O2730   1.263   1_455  A
O940       Cr949   1.993       .  S
O940        C948   1.261   1_455  A
O941       Cr949   1.982       .  S
O941        C942   1.260       .  A
C942       C1066   1.488       .  S
C942        O943   1.268       .  A
O943       Cr950   2.021   1_455  S
O944      Cr2742   1.978       .  S
O944        C945   1.260       .  A
C945       C1080   1.470       .  S
C945        O946   1.266       .  A
O946       Cr951   2.007       .  S
O947       Cr951   1.981       .  S
O947       C2740   1.261       .  A
C948       C1178   1.460       .  S
C948       O2739   1.261       .  A
Cr949       O952   1.770       .  S
Cr950      O2727   2.019       .  S
Cr950      O2736   1.982       .  S
Cr950       O952   1.772   1_655  S
Cr951      O2744   1.769       .  S
O952      Cr2743   1.770   1_455  S
C953        C954   1.416       .  A
C953        C958   1.414       .  A
C953       C1055   1.483       .  S
C954       C1234   1.498       .  S
C955        C956   1.421       .  A
C955       C1111   1.489       .  S
C956        C957   1.422       .  A
C956       C1038   1.499       .  S
C957       C1097   1.490       .  S
C958       C1223   1.492       .  S
O959       Cr977   2.007       .  S
O959        C967   1.265       .  A
O960       Cr977   1.963       .  S
O960        C961   1.259       .  A
C961       C1167   1.484       .  S
C961        O962   1.269       .  A
O962       Cr978   2.020       .  S
O963       Cr978   2.006       .  S
O963        C964   1.264       .  A
C964       C1150   1.498       .  S
C964        O965   1.269       .  A
O965       Cr979   2.028       .  S
O966       Cr979   1.975       .  S
O966        C967   1.257       .  A
C967       C1024   1.463       .  S
O968       Cr977   1.969       .  S
O968        C976   1.257       .  A
O969       Cr977   2.010       .  S
O969        C970   1.265       .  A
C970       C1307   1.481       .  S
C970        O971   1.262       .  A
O971       Cr978   1.999       .  S
O972       Cr978   2.018       .  S
O972        C973   1.270       .  A
C973       C1318   1.482       .  S
C973        O974   1.253       .  A
O974       Cr979   1.955       .  S
O975       Cr979   2.016       .  S
O975        C976   1.267       .  A
C976       C1041   1.471       .  S
Cr977       O980   1.766       .  S
Cr978       O980   1.769       .  S
Cr979       O980   1.766       .  S
C981        C982   1.424       .  A
C981        C986   1.422       .  A
C981       C1010   1.485       .  S
C982        C983   1.414       .  A
C982       C1209   1.491       .  S
C983        C984   1.409       .  A
C983       C1083   1.492       .  S
C984        C985   1.411       .  A
C984       C1027   1.477       .  S
C985        C986   1.406       .  A
C985       C1069   1.487       .  S
C986       C1195   1.494       .  S
O987      Cr1005   1.965       .  S
O987        C995   1.256       .  A
O988      Cr1005   2.009       .  S
O988        C989   1.267       .  A
C989       C1276   1.471       .  S
C989        O990   1.260       .  A
O990      Cr1006   1.977       .  S
O991      Cr1006   2.008       .  S
O991        C992   1.267       .  A
C992       C1262   1.482       .  S
C992        O993   1.257       .  A
O993      Cr1007   1.975       .  S
O994      Cr1007   1.997       .  S
O994        C995   1.262       .  A
C995       C1052   1.455       .  S
O996      Cr1005   2.005       .  S
O996       C1004   1.265       .  A
O997      Cr1005   1.979       .  S
O997        C998   1.259       .  A
C998       C1122   1.481       .  S
C998        O999   1.267       .  A
O999      Cr1006   2.008       .  S
O1000     Cr1006   1.976       .  S
O1000      C1001   1.260       .  A
C1001      C1139   1.466       .  S
C1001      O1002   1.265       .  A
O1002     Cr1007   1.998       .  S
O1003     Cr1007   1.977       .  S
O1003      C1004   1.257       .  A
C1004      C1013   1.466       .  S
Cr1005     O1008   1.764       .  S
Cr1006     O1008   1.769       .  S
Cr1007     O1008   1.768       .  S
C1009      C1010   1.403       .  A
C1009      C1014   1.402       .  A
C1009      H1016   1.084       .  S
C1010      C1011   1.413       .  A
C1011      C1012   1.399       .  A
C1011      N1018   1.433       .  S
C1012      C1013   1.400       .  A
C1012      H1017   1.085       .  S
C1013      C1014   1.408       .  A
C1014      N1015   1.436       .  S
N1015      O1019   1.261       .  A
N1015      O1020   1.262       .  A
N1018      O1022   1.259       .  A
N1018      O1021   1.262       .  A
C1023      C1024   1.399       .  A
C1023      C1028   1.401       .  A
C1023      H1030   1.084       .  S
C1024      C1025   1.411       .  A
C1025      C1026   1.394       .  A
C1025      N1032   1.438       .  S
C1026      C1027   1.394       .  A
C1026      H1031   1.078       .  S
C1027      C1028   1.413       .  A
C1028      N1029   1.434       .  S
N1029      O1033   1.262       .  A
N1029      O1034   1.262       .  A
N1032      O1036   1.262       .  A
N1032      O1035   1.262       .  A
C1037      C1038   1.403       .  A
C1037      C1042   1.402       .  A
C1037      H1044   1.085       .  S
C1038      C1039   1.419       .  A
C1039      C1040   1.398       .  A
C1039      N1046   1.438       .  S
C1040      C1041   1.392       .  A
C1040      H1045   1.106       .  S
C1041      C1042   1.415       .  A
C1042      N1043   1.443       .  S
N1043      O1047   1.262       .  A
N1043      O1048   1.263       .  A
N1046      O1050   1.263   1_565  A
N1046      O1049   1.262   1_565  A
C1051      C1052   1.395       .  A
C1051      C1056   1.397       .  A
C1051      H1058   1.081       .  S
C1052      C1053   1.407       .  A
C1053      C1054   1.399       .  A
C1053      N1060   1.436       .  S
C1054      C1055   1.403       .  A
C1054      H1059   1.082       .  S
C1055      C1056   1.416       .  A
C1056      N1057   1.439       .  S
N1060      O1064   1.262       .  A
N1060      O1063   1.261       .  A
C1065      C1066   1.406       .  A
C1065      C1070   1.402       .  A
C1065      H1072   1.084       .  S
C1066      C1067   1.415       .  A
C1067      C1068   1.403       .  A
C1067      N1074   1.428       .  S
C1068      C1069   1.400       .  A
C1068      H1073   1.083       .  S
C1069      C1070   1.415       .  A
C1070      N1071   1.435       .  S
N1071      O1075   1.260       .  A
N1071      O1076   1.260       .  A
N1074      O1078   1.262       .  A
N1074      O1077   1.262       .  A
C1079      C1080   1.401       .  A
C1079      C1084   1.404       .  A
C1079      H1086   1.084       .  S
C1080      C1081   1.406       .  A
C1081      C1082   1.399       .  A
C1081      N1088   1.432       .  S
C1082      C1083   1.404       .  A
C1082      H1087   1.084       .  S
C1083      C1084   1.415       .  A
C1084      N1085   1.429       .  S
N1085      O1089   1.260       .  A
N1085      O1090   1.262       .  A
N1088      O1092   1.262       .  A
N1088      O1091   1.262       .  A
C1093      C1094   1.414       .  A
C1093      C1098   1.407       .  A
C1093      H1100   1.083       .  S
C1094      C1095   1.418       .  A
C1095      C1096   1.402       .  A
C1095      N1102   1.432       .  S
C1096      C1097   1.402       .  A
C1096      H1101   1.084       .  S
C1097      C1098   1.404       .  A
N1099      O1103   1.262       .  A
N1099      O1104   1.261       .  A
N1102      O1106   1.262       .  A
N1102      O1105   1.262       .  A
C1107      C1108   1.399       .  A
C1107      C1112   1.399       .  A
C1107      H1114   1.084       .  S
C1108      C1109   1.408       .  A
C1109      C1110   1.403       .  A
C1109      N1116   1.432       .  S
C1110      C1111   1.404       .  A
C1110      H1115   1.080       .  S
C1111      C1112   1.413       .  A
C1112      N1113   1.431       .  S
N1113      O1117   1.260       .  A
N1113      O1118   1.261       .  A
N1116      O1120   1.262       .  A
N1116      O1119   1.262       .  A
C1121      C1122   1.398       .  A
C1121      C1126   1.402       .  A
C1121      H1128   1.083       .  S
C1122      C1123   1.410       .  A
C1123      C1572   1.402       .  A
C1123      N1578   1.427       .  S
C1124      C1571   1.401       .  A
C1124      C1573   1.401       .  A
C1124      H1129   1.084       .  S
C1125      C1572   1.402       .  A
C1125      C1126   1.425       .  A
C1126      N1127   1.446       .  S
N1127      O1131   1.263       .  A
N1127      O1132   1.259       .  A
N1130      C1571   1.428       .  S
N1130      O1134   1.261       .  A
N1130      O1133   1.262       .  A
C1135      C1584   1.405   1_554  A
C1135      C1140   1.399       .  A
C1135      H1142   1.079       .  S
C1136      C1583   1.405       .  A
C1136      C1137   1.415       .  A
C1137      C1138   1.401       .  A
C1137      N1144   1.434       .  S
C1138      C1139   1.400       .  A
C1138      H1143   1.082       .  S
C1139      C1588   1.402       .  A
C1140      C1587   1.403   1_554  A
C1140      N1141   1.429       .  S
N1141      O1145   1.262       .  A
N1141      O1146   1.262       .  A
N1144      O1148   1.262       .  A
N1144      O1147   1.260       .  A
C1149      C1150   1.407       .  A
C1149      C1154   1.417       .  A
C1149      H1156   1.084       .  S
C1150      C1151   1.412       .  A
C1151      C1152   1.409       .  A
C1151      N1158   1.437   1_554  S
C1152      C1153   1.409       .  A
C1152      H1157   1.084   1_554  S
C1153      C1154   1.421       .  A
C1154      N1155   1.432       .  S
N1155      O1159   1.263       .  A
N1155      O1160   1.259       .  A
N1158      O1162   1.263       .  A
N1158      O1609   1.263       .  A
O1161      N1606   1.263       .  A
C1163      C1164   1.403       .  A
C1163      C1168   1.397       .  A
C1163      H1170   1.081   1_554  S
C1164      C1165   1.414       .  A
C1165      C1166   1.401       .  A
C1165      N1620   1.430       .  S
C1166      C1167   1.406       .  A
C1166      H1619   1.084       .  S
C1167      C1168   1.410       .  A
C1168      N1169   1.428   1_554  S
N1169      O1173   1.261       .  A
N1169      O1174   1.262       .  A
H1171      C1614   1.084       .  S
N1172      C1613   1.431       .  S
N1172      O1176   1.260       .  A
N1172      O1175   1.262       .  A
C1177      C1178   1.395   1_455  A
C1177      C1182   1.400       .  A
C1177      H1184   1.083       .  S
C1178      C2971   1.408       .  A
C1179      C2970   1.409       .  A
C1179      C1180   1.400       .  A
C1179      N1186   1.435       .  S
C1180      C2973   1.404       .  A
C1180      H1185   1.083       .  S
C1181      C2972   1.403       .  A
C1181      C1182   1.416   1_655  A
C1182      N1183   1.434       .  S
N1183      O1187   1.263       .  A
N1183      O1188   1.261   1_455  A
N1186      O1190   1.262       .  A
N1186      O1189   1.262       .  A
C1191      C1192   1.405       .  A
C1191      C1196   1.402       .  A
C1191      H1198   1.084       .  S
C1192      C1193   1.411       .  A
C1193      C1194   1.401       .  A
C1193      N1200   1.428       .  S
C1194      C1195   1.403       .  A
C1194      H1199   1.084       .  S
C1195      C1196   1.411       .  A
C1196      N1197   1.425       .  S
N1197      O1201   1.262       .  A
N1197      O1202   1.260       .  A
N1200      O1204   1.261       .  A
N1200      O1203   1.262       .  A
C1205      C1206   1.401       .  A
C1205      C1210   1.404       .  A
C1205      H1212   1.084       .  S
C1206      C1207   1.403       .  A
C1207      C1208   1.399       .  A
C1207      N1214   1.429       .  S
C1208      C1209   1.404       .  A
C1208      H1213   1.082       .  S
C1209      C1210   1.415       .  A
C1210      N1211   1.432       .  S
N1211      O1215   1.262       .  A
N1211      O1216   1.260       .  A
N1214      O1218   1.262       .  A
N1214      O1217   1.261       .  A
C1219      C1220   1.401       .  A
C1219      C1224   1.402       .  A
C1219      H1226   1.083       .  S
C1220      C1221   1.410       .  A
C1221      C1222   1.402       .  A
C1221      N1228   1.430       .  S
C1222      C1223   1.402       .  A
C1223      C1224   1.415       .  A
C1224      N1225   1.434       .  S
N1225      O1229   1.262       .  A
N1225      O1230   1.262       .  A
N1228      O1232   1.262       .  A
N1228      O1231   1.262       .  A
C1233      C1234   1.405       .  A
C1233      C1238   1.404       .  A
C1233      H1240   1.084       .  S
C1234      C1235   1.414       .  A
C1235      C1236   1.405       .  A
C1235      N1242   1.429       .  S
C1236      C1237   1.402       .  A
C1236      H1241   1.084       .  S
C1237      C1238   1.411       .  A
C1238      N1239   1.431       .  S
N1239      O1243   1.262       .  A
N1239      O1244   1.262       .  A
N1242      O1246   1.260       .  A
N1242      O1245   1.262       .  A
C1247      C1248   1.411   1_455  A
C1247      C1252   1.403       .  A
C1247      H1254   1.084       .  S
C1248      C3041   1.426       .  A
C1248      C2717   1.503       .  S
C1249      C3040   1.426       .  A
C1249      C1250   1.407       .  A
C1249      N1256   1.443       .  S
C1250      C3043   1.397       .  A
C1250      H1255   1.084       .  S
C1251      C3042   1.398       .  A
C1251      C1252   1.402   1_655  A
C1252      N1253   1.431       .  S
N1253      O1257   1.262   1_455  A
N1253      O1258   1.262       .  A
N1256      O1260   1.258       .  A
N1256      O1259   1.263       .  A
C1261      C1262   1.398       .  A
C1261      C1714   1.393       .  A
C1261      H1716   1.084       .  S
C1262      C1263   1.415       .  A
C1263      C1264   1.404       .  A
C1263      N1270   1.427       .  S
C1264      C1265   1.399       .  A
C1264      H1269   1.081       .  S
C1265      C1714   1.411       .  A
C1266      C1709   1.392       .  A
C1266      C1713   1.411       .  A
C1266      N1267   1.424   1_556  S
N1267      O1271   1.261       .  A
H1268      C1709   1.084   1_554  S
N1270      O1274   1.262       .  A
N1270      O1273   1.262       .  A
C1275      C1276   1.396       .  A
C1275      C1728   1.398       .  A
C1275      H1730   1.084       .  S
C1276      C1277   1.408       .  A
C1277      C1278   1.404       .  A
C1277      N1284   1.428       .  S
C1278      C1279   1.406       .  A
C1278      H1283   1.083       .  S
C1279      C1728   1.416       .  A
C1280      C1723   1.398   1_554  A
C1280      C1727   1.417   1_554  A
C1280      N1281   1.428       .  S
N1281      O1285   1.260       .  A
N1281      O1286   1.261       .  A
H1282      C1723   1.084   1_554  S
N1284      O1288   1.262       .  A
N1284      O1287   1.262       .  A
C1289      C1290   1.400   1_455  A
C1289      C1294   1.401       .  A
C1289      H1296   1.082       .  S
C1290      C3083   1.416       .  A
C1290      C2692   1.488       .  S
C1291      C3082   1.416       .  A
C1291      C1292   1.402       .  A
C1291      N1298   1.433       .  S
C1292      C3085   1.398       .  A
C1292      H1297   1.083       .  S
C1293      C3084   1.396   1_455  A
C1293      C1294   1.415       .  A
C1294      N1295   1.439       .  S
N1295      O1299   1.263       .  A
N1295      O1300   1.262       .  A
N1298      O1302   1.261       .  A
N1298      O1301   1.262       .  A
C1303      C1304   1.405       .  A
C1303      C1308   1.410       .  A
C1304      C1305   1.415       .  A
C1305      C1306   1.401       .  A
C1305      N1312   1.430   1_554  S
C1306      C1307   1.397       .  A
C1306      H1311   1.082       .  S
C1307      C1308   1.412       .  A
C1308      N1309   1.428       .  S
N1309      O1313   1.262       .  A
N1309      O1314   1.262       .  A
N1312      O1316   1.261       .  A
N1312      O1315   1.262       .  A
C1317      C1318   1.401       .  A
C1317      C1322   1.397   1_554  A
C1317      H1324   1.084   1_554  S
C1318      C1319   1.418       .  A
C1319      C1320   1.394       .  A
C1319      N1326   1.425       .  S
C1320      C1321   1.394       .  A
C1321      C1322   1.411   1_554  A
C1322      N1323   1.428       .  S
N1323      O1775   1.260       .  A
N1323      O1328   1.262       .  A
N1326      O1330   1.262       .  A
N1326      O1329   1.262       .  A
O1327      N1771   1.261       .  A
C1331      C1332   1.404       .  A
C1331      C1336   1.408       .  A
C1331      H1338   1.082       .  S
C1332      C3125   1.414   1_455  A
C1333      C3124   1.415       .  A
C1333      C1334   1.397       .  A
C1333      N1340   1.433       .  S
C1334      C3127   1.395       .  A
C1334      H1339   1.084       .  S
C1335      C3126   1.395   1_455  A
C1335      C1336   1.416       .  A
C1336      N1337   1.442       .  S
N1337      O1341   1.261       .  A
N1337      O1342   1.262       .  A
N1340      O1344   1.262   1_565  A
N1340      O1343   1.263   1_565  A
C1345      C1346   1.419       .  A
C1345      C3142   1.415   1_455  A
C1345      C1780   1.493       .  S
C1346      C1769   1.477       .  S
C1347      C3140   1.411   1_455  A
C1347      C1727   1.498       .  S
C1348      C3139   1.412       .  A
C1348      C1349   1.417       .  A
C1348      C3530   1.485       .  S
C1349      C1713   1.481       .  S
C1350      C3137   1.413       .  A
C1350      C1752   1.499       .  S
O1351     Cr1369   1.988       .  S
O1351      C3151   1.261       .  A
O1352     Cr1369   2.002       .  S
O1352      C1353   1.265       .  A
C1353      C1654   1.466       .  S
C1353      O1354   1.259       .  A
O1354     Cr3162   1.977       .  S
O1355     Cr1370   2.024       .  S
O1355      C1356   1.268       .  A
C1356      C1640   1.487       .  S
C1356      O1357   1.258       .  A
O1357     Cr1371   1.959       .  S
O1358     Cr1371   2.010       .  S
O1358      C1359   1.265       .  A
C1359      C1699   1.474   1_455  S
C1359      O3143   1.260   1_455  A
O1360     Cr1369   2.001       .  S
O1360      C3160   1.262       .  A
O1361     Cr1369   1.982       .  S
O1361      C1362   1.260       .  A
C1362      C1668   1.478       .  S
C1362      O1363   1.268       .  A
O1363     Cr3162   2.019       .  S
O1364     Cr1370   1.987       .  S
O1364      C1365   1.260       .  A
C1365      C1685   1.477       .  S
C1365      O1366   1.265       .  A
O1366     Cr1371   2.005       .  S
O1367     Cr1371   1.975       .  S
O1367      C1368   1.258       .  A
C1368      C1741   1.460       .  S
C1368      O3152   1.262   1_455  A
Cr1369     O3164   1.771       .  S
Cr1370     O3146   1.981   1_455  S
Cr1370     O3155   2.020   1_455  S
Cr1370     O1372   1.781       .  S
Cr1371     O1372   1.765       .  S
O1372     Cr3161   1.770   1_455  S
C1373      C1374   1.421       .  A
C1373      C3170   1.426       .  A
C1373      C3488   1.509       .  S
C1374      C1584   1.494       .  S
C1375      C3168   1.423       .  A
C1375      C1612   1.494       .  S
C1376      C3167   1.421       .  A
C1376      C1377   1.421   1_655  A
C1376      C1629   1.488       .  S
C1377      C1601   1.514       .  S
C1378      C3165   1.425   1_455  A
C1378      C1573   1.483       .  S
O1379     Cr1397   1.980       .  S
O1379      C1387   1.260       .  A
O1380     Cr1397   2.005       .  S
O1380      C1381   1.265       .  A
C1381      C1556   1.464       .  S
C1381      O1382   1.259       .  A
O1382     Cr1398   1.976   1_455  S
O1383     Cr3190   2.024       .  S
O1383      C1384   1.270       .  A
C1384      C1542   1.496       .  S
C1384      O1385   1.260       .  A
O1385     Cr1399   1.981       .  S
O1386     Cr1399   1.998       .  S
O1386      C3179   1.262       .  A
C1387      C1783   1.464       .  S
C1387      O3178   1.262   1_455  A
O1388     Cr1397   1.993       .  S
O1388      C1396   1.261   1_455  A
O1389     Cr1397   1.979       .  S
O1389      C1390   1.259       .  A
C1390      C1514   1.491       .  S
C1390      O1391   1.271       .  A
O1391     Cr1398   2.029   1_455  S
O1392     Cr3190   1.981       .  S
O1392      C1393   1.260       .  A
C1393      C1528   1.471       .  S
C1393      O1394   1.265       .  A
O1394     Cr1399   2.007       .  S
O1395     Cr1399   1.972       .  S
O1395      C3188   1.259       .  A
C1396      C1626   1.459       .  S
C1396      O3187   1.261       .  A
Cr1397     O1400   1.768   1_455  S
Cr1398     O3175   2.027       .  S
Cr1398     O3184   1.980       .  S
Cr1398     O1400   1.772       .  S
Cr1399     O3192   1.769       .  S
O1400     Cr3191   1.770       .  S
C1401      C1402   1.415       .  A
C1401      C1406   1.413       .  A
C1401      C1503   1.478       .  S
C1402      C1682   1.496       .  S
C1403      C1404   1.420       .  A
C1403      C1559   1.486       .  S
C1404      C1405   1.422       .  A
C1404      C1486   1.498       .  S
C1405      C1545   1.490       .  S
C1406      C1671   1.498       .  S
O1407     Cr1425   2.006       .  S
O1407      C1415   1.265       .  A
O1408     Cr1425   1.962       .  S
O1408      C1409   1.259       .  A
C1409      C1615   1.483       .  S
C1409      O1410   1.268       .  A
O1410     Cr1426   2.013       .  S
O1411     Cr1426   2.003       .  S
O1411      C1412   1.262       .  A
C1412      C1598   1.495       .  S
C1412      O1413   1.268       .  A
O1413     Cr1427   2.026       .  S
O1414     Cr1427   1.972       .  S
O1414      C1415   1.257       .  A
C1415      C1472   1.461       .  S
O1416     Cr1425   1.968       .  S
O1416      C1424   1.256       .  A
O1417     Cr1425   2.010       .  S
O1417      C1418   1.265       .  A
C1418      C1755   1.484       .  S
C1418      O1419   1.263       .  A
O1419     Cr1426   1.997       .  S
O1420     Cr1426   2.020       .  S
O1420      C1421   1.271       .  A
C1421      C1766   1.481       .  S
C1421      O1422   1.252       .  A
O1422     Cr1427   1.950       .  S
O1423     Cr1427   2.014       .  S
O1423      C1424   1.266       .  A
C1424      C1489   1.469       .  S
Cr1425     O1428   1.767       .  S
Cr1426     O1428   1.772       .  S
Cr1427     O1428   1.767       .  S
C1429      C1430   1.423       .  A
C1429      C1434   1.422       .  A
C1429      C1458   1.483       .  S
C1430      C1431   1.413       .  A
C1430      C1657   1.492       .  S
C1431      C1432   1.409       .  A
C1431      C1531   1.491       .  S
C1432      C1433   1.410       .  A
C1432      C1475   1.472       .  S
C1433      C1434   1.406       .  A
C1433      C1517   1.494       .  S
C1434      C1643   1.489       .  S
O1435     Cr1453   1.956       .  S
O1435      C1443   1.254       .  A
O1436     Cr1453   2.004       .  S
O1436      C1437   1.264       .  A
C1437      C1724   1.471       .  S
C1437      O1438   1.259       .  A
O1438     Cr1454   1.984       .  S
O1439     Cr1454   2.004       .  S
O1439      C1440   1.266       .  A
C1440      C1710   1.479       .  S
C1440      O1441   1.257       .  A
O1441     Cr1455   1.976       .  S
O1442     Cr1455   1.996       .  S
O1442      C1443   1.263       .  A
C1443      C1500   1.447       .  S
O1444     Cr1453   2.003       .  S
O1444      C1452   1.264       .  A
O1445     Cr1453   1.971       .  S
O1445      C1446   1.258       .  A
C1446      C1570   1.478       .  S
C1446      O1447   1.269       .  A
O1447     Cr1454   2.010       .  S
O1448     Cr1454   1.979       .  S
O1448      C1449   1.261       .  A
C1449      C1587   1.469       .  S
C1449      O1450   1.266       .  A
O1450     Cr1455   1.999       .  S
O1451     Cr1455   1.985       .  S
O1451      C1452   1.259       .  A
C1452      C1461   1.471       .  S
Cr1453     O1456   1.763       .  S
Cr1454     O1456   1.768       .  S
Cr1455     O1456   1.767       .  S
C1457      C1458   1.400       .  A
C1457      C1462   1.401       .  A
C1457      H1464   1.084       .  S
C1458      C1459   1.408       .  A
C1459      C1460   1.398       .  A
C1459      N1466   1.428       .  S
C1460      C1461   1.403       .  A
C1460      H1465   1.084       .  S
C1461      C1462   1.409       .  A
C1462      N1463   1.431       .  S
N1463      O1467   1.260       .  A
N1463      O1468   1.262       .  A
N1466      O1470   1.260       .  A
N1466      O1469   1.260       .  A
C1471      C1472   1.399       .  A
C1471      C1476   1.399       .  A
C1471      H1478   1.084       .  S
C1472      C1473   1.413       .  A
C1473      C1474   1.394       .  A
C1473      N1480   1.439       .  S
C1474      C1475   1.393       .  A
C1474      H1479   1.079       .  S
C1475      C1476   1.413       .  A
C1476      N1477   1.434       .  S
N1477      O1481   1.261       .  A
N1477      O1482   1.262       .  A
N1480      O1484   1.262       .  A
N1480      O1483   1.261       .  A
C1485      C1486   1.404       .  A
C1485      C1490   1.403       .  A
C1485      H1492   1.081       .  S
C1486      C1487   1.418       .  A
C1487      C1488   1.399       .  A
C1487      N1494   1.438       .  S
C1488      C1489   1.394       .  A
C1488      H1493   1.089       .  S
C1489      C1490   1.415       .  A
C1490      N1491   1.444       .  S
N1491      O1495   1.262       .  A
N1491      O1496   1.263       .  A
N1494      O1498   1.263       .  A
N1494      O1497   1.262   1_565  A
C1499      C1500   1.392       .  A
C1499      C1504   1.393       .  A
C1499      H1506   1.074       .  S
C1500      C1501   1.405       .  A
C1501      C1502   1.396       .  A
C1501      N1508   1.436       .  S
C1502      C1503   1.402       .  A
C1502      H1507   1.081       .  S
C1503      C1504   1.414       .  A
C1504      N1505   1.435       .  S
N1508      O1512   1.263       .  A
N1508      O1511   1.261       .  A
C1513      C1514   1.404       .  A
C1513      C1518   1.404       .  A
C1513      H1520   1.084       .  S
C1514      C1515   1.416       .  A
C1515      C1516   1.405       .  A
C1515      N1522   1.428       .  S
C1516      C1517   1.401       .  A
C1516      H1521   1.083       .  S
C1517      C1518   1.416       .  A
C1518      N1519   1.434       .  S
N1519      O1523   1.260       .  A
N1519      O1524   1.262       .  A
N1522      O1526   1.262       .  A
N1522      O1525   1.262       .  A
C1527      C1528   1.402       .  A
C1527      C1532   1.405       .  A
C1527      H1534   1.084       .  S
C1528      C1529   1.407       .  A
C1529      C1530   1.400       .  A
C1529      N1536   1.432       .  S
C1530      C1531   1.403       .  A
C1530      H1535   1.084       .  S
C1531      C1532   1.416       .  A
C1532      N1533   1.431       .  S
N1533      O1537   1.260       .  A
N1533      O1538   1.263       .  A
N1536      O1540   1.262       .  A
N1536      O1539   1.262       .  A
C1541      C1542   1.413       .  A
C1541      C1546   1.407       .  A
C1541      H1548   1.083       .  S
C1542      C1543   1.416       .  A
C1543      C1544   1.400       .  A
C1543      N1550   1.429       .  S
C1544      C1545   1.402       .  A
C1544      H1549   1.084       .  S
C1545      C1546   1.405       .  A
N1547      O1551   1.262       .  A
N1547      O1552   1.262       .  A
N1550      O1554   1.261       .  A
N1550      O1553   1.262       .  A
C1555      C1556   1.399       .  A
C1555      C1560   1.398       .  A
C1555      H1562   1.084       .  S
C1556      C1557   1.407       .  A
C1557      C1558   1.402       .  A
C1557      N1564   1.432       .  S
C1558      C1559   1.404       .  A
C1558      H1563   1.081       .  S
C1559      C1560   1.412       .  A
C1560      N1561   1.431       .  S
N1561      O1565   1.261       .  A
N1561      O1566   1.260       .  A
N1564      O1568   1.262       .  A
N1564      O1567   1.262       .  A
C1569      C1570   1.398       .  A
C1569      C1574   1.400   1_556  A
C1569      H1576   1.083   1_556  S
C1570      C1571   1.411       .  A
C1572      H1577   1.084       .  S
C1573      C1574   1.425   1_556  A
C1574      N1575   1.446       .  S
N1575      O1579   1.263       .  A
N1575      O1580   1.259       .  A
N1578      O1582   1.261       .  A
N1578      O1581   1.262       .  A
C1583      C1588   1.397       .  A
C1583      H1590   1.078       .  S
C1584      C1585   1.414       .  A
C1585      C1586   1.401       .  A
C1585      N1592   1.434       .  S
C1586      C1587   1.399       .  A
C1586      H1591   1.080       .  S
C1588      N1589   1.429       .  S
N1589      O1593   1.262       .  A
N1589      O1594   1.262       .  A
N1592      O1596   1.262       .  A
N1592      O1595   1.260       .  A
C1597      C1598   1.406       .  A
C1597      C1602   1.416       .  A
C1597      H1604   1.084       .  S
C1598      C1599   1.409       .  A
C1599      C1600   1.408       .  A
C1599      N1606   1.435       .  S
C1600      C1601   1.409       .  A
C1600      H1605   1.084       .  S
C1601      C1602   1.421       .  A
C1602      N1603   1.433       .  S
N1603      O1607   1.263       .  A
N1603      O1608   1.259       .  A
N1606      O1610   1.262       .  A
C1611      C1612   1.404       .  A
C1611      C1616   1.397       .  A
C1611      H1618   1.080       .  S
C1612      C1613   1.414       .  A
C1613      C1614   1.400       .  A
C1614      C1615   1.407       .  A
C1615      C1616   1.410       .  A
C1616      N1617   1.430       .  S
N1617      O1621   1.262       .  A
N1617      O1622   1.262       .  A
N1620      O1624   1.260       .  A
N1620      O1623   1.262       .  A
C1625      C1626   1.394   1_455  A
C1625      C1630   1.398       .  A
C1625      H1632   1.083       .  S
C1626      C3419   1.410       .  A
C1627      C3418   1.412       .  A
C1627      C1628   1.403       .  A
C1627      N1634   1.445       .  S
C1628      C3421   1.405       .  A
C1628      H1633   1.081       .  S
C1629      C3420   1.404       .  A
C1629      C1630   1.416   1_655  A
C1630      N1631   1.434       .  S
N1631      O1635   1.263       .  A
N1631      O1636   1.261   1_455  A
N1634      O1638   1.262       .  A
N1634      O1637   1.263       .  A
C1639      C1640   1.406       .  A
C1639      C1644   1.397       .  A
C1639      H1646   1.084       .  S
C1640      C1641   1.413       .  A
C1641      C1642   1.403       .  A
C1641      N1648   1.430       .  S
C1642      C1643   1.404       .  A
C1642      H1647   1.084       .  S
C1643      C1644   1.408       .  A
C1644      N1645   1.426       .  S
N1645      O1649   1.262       .  A
N1645      O1650   1.261       .  A
N1648      O1652   1.262       .  A
N1648      O1651   1.262       .  A
C1653      C1654   1.400       .  A
C1653      C1658   1.403       .  A
C1653      H1660   1.084       .  S
C1654      C1655   1.403       .  A
C1655      C1656   1.399       .  A
C1655      N1662   1.430       .  S
C1656      C1657   1.404       .  A
C1656      H1661   1.083       .  S
C1657      C1658   1.416       .  A
C1658      N1659   1.430       .  S
N1659      O1663   1.262       .  A
N1659      O1664   1.260       .  A
N1662      O1666   1.262       .  A
N1662      O1665   1.261       .  A
C1667      C1668   1.400       .  A
C1667      C1672   1.403       .  A
C1667      H1674   1.082       .  S
C1668      C1669   1.409       .  A
C1669      C1670   1.404       .  A
C1669      N1676   1.431       .  S
C1670      C1671   1.404       .  A
C1671      C1672   1.417       .  A
C1672      N1673   1.436       .  S
N1673      O1677   1.263       .  A
N1673      O1678   1.262       .  A
N1676      O1680   1.262       .  A
N1676      O1679   1.262       .  A
C1681      C1682   1.405       .  A
C1681      C1686   1.400       .  A
C1681      H1688   1.084       .  S
C1682      C1683   1.413       .  A
C1683      C1684   1.406       .  A
C1683      N1690   1.429       .  S
C1684      C1685   1.403       .  A
C1684      H1689   1.084       .  S
C1685      C1686   1.406       .  A
C1686      N1687   1.427       .  S
N1687      O1691   1.261       .  A
N1687      O1692   1.262       .  A
N1690      O1694   1.261       .  A
N1690      O1693   1.262       .  A
C1695      C1696   1.411   1_455  A
C1695      C1700   1.404       .  A
C1695      H1702   1.084       .  S
C1696      C3489   1.426       .  A
C1696      C3165   1.506       .  S
C1697      C3488   1.426       .  A
C1697      C1698   1.410       .  A
C1697      N1704   1.443       .  S
C1698      C3491   1.399       .  A
C1698      H1703   1.083       .  S
C1699      C3490   1.398       .  A
C1699      C1700   1.402   1_655  A
C1700      N1701   1.430       .  S
N1701      O1705   1.262       .  A
N1701      O1706   1.262       .  A
N1704      O1708   1.259   1_556  A
N1704      O1707   1.263       .  A
C1709      C1710   1.397       .  A
C1710      C1711   1.415       .  A
C1711      C1712   1.403       .  A
C1711      N1718   1.426       .  S
C1712      C1713   1.397       .  A
C1712      H1717   1.082       .  S
C1714      N1715   1.425       .  S
N1715      O1719   1.261       .  A
N1718      O1722   1.262       .  A
N1718      O1721   1.262       .  A
C1723      C1724   1.394       .  A
C1724      C1725   1.409       .  A
C1725      C1726   1.405       .  A
C1725      N1732   1.428       .  S
C1726      C1727   1.405       .  A
C1726      H1731   1.083       .  S
C1728      N1729   1.428       .  S
N1729      O1733   1.261       .  A
N1729      O1734   1.260       .  A
N1732      O1736   1.262       .  A
N1732      O1735   1.262       .  A
C1737      C1738   1.399   1_455  A
C1737      C1742   1.399       .  A
C1737      H1744   1.082       .  S
C1738      C3531   1.415       .  A
C1738      C3140   1.483       .  S
C1739      C3530   1.415       .  A
C1739      C1740   1.398       .  A
C1739      N1746   1.433       .  S
C1740      C3533   1.396       .  A
C1740      H1745   1.083       .  S
C1741      C3532   1.396   1_455  A
C1741      C1742   1.414       .  A
C1742      N1743   1.440       .  S
N1743      O1747   1.263       .  A
N1743      O1748   1.262       .  A
N1746      O1750   1.261       .  A
N1746      O1749   1.262       .  A
C1751      C1752   1.403       .  A
C1751      C1756   1.407       .  A
C1752      C1753   1.414       .  A
C1753      C1754   1.406       .  A
C1753      N1760   1.428       .  S
C1754      C1755   1.400       .  A
C1754      H1759   1.084       .  S
C1755      C1756   1.412       .  A
C1756      N1757   1.428       .  S
N1757      O1761   1.262       .  A
N1757      O1762   1.262       .  A
N1760      O1764   1.261       .  A
N1760      O1763   1.261       .  A
C1765      C1766   1.401       .  A
C1765      C1770   1.397       .  A
C1765      H1772   1.084       .  S
C1766      C1767   1.420       .  A
C1767      C1768   1.394       .  A
C1767      N1774   1.427       .  S
C1768      C1769   1.393       .  A
C1769      C1770   1.410       .  A
C1770      N1771   1.428       .  S
N1771      O1776   1.262       .  A
N1774      O1778   1.262       .  A
N1774      O1777   1.262       .  A
C1779      C1780   1.404       .  A
C1779      C1784   1.407       .  A
C1779      H1786   1.083       .  S
C1780      C3573   1.416   1_455  A
C1781      C3572   1.420       .  A
C1781      C1782   1.399       .  A
C1781      N1788   1.432   1_565  S
C1782      C3575   1.392       .  A
C1782      H1787   1.084       .  S
C1783      C3574   1.394   1_455  A
C1783      C1784   1.415       .  A
C1784      N1785   1.441       .  S
N1785      O1789   1.262       .  A
N1785      O1790   1.262       .  A
N1788      O1792   1.259       .  A
N1788      O1791   1.263       .  A
C1793      C1794   1.419       .  A
C1793      C2228   1.492       .  S
C1794      C3139   1.403   1_554  A
C1794      C2217   1.478       .  S
C1795      C3138   1.406   1_545  A
C1795      C2175   1.503       .  S
C1796      C1797   1.418       .  A
C1797      C3142   1.413   1_545  A
C1797      C2161   1.482       .  S
C1798      C3141   1.414   1_554  A
C1798      C2200   1.499       .  S
O1799     Cr1817   1.983       .  S
O1800     Cr1817   2.000       .  S
O1800      C1801   1.265       .  A
C1801      C2102   1.467       .  S
C1801      O1802   1.260       .  A
O1803     Cr1818   2.019       .  S
O1803      C1804   1.267       .  A
C1804      C2088   1.483       .  S
C1804      O1805   1.258       .  A
O1805     Cr1819   1.964       .  S
O1806     Cr1819   2.014       .  S
O1806      C1807   1.266       .  A
C1807      C2147   1.476       .  S
O1808     Cr1817   2.001       .  S
O1809     Cr1817   1.981       .  S
O1809      C1810   1.260       .  A
C1810      C2116   1.479       .  S
C1810      O1811   1.268       .  A
O1812     Cr1818   1.987       .  S
O1812      C1813   1.261       .  A
C1813      C2133   1.480       .  S
C1813      O1814   1.267       .  A
O1814     Cr1819   2.009       .  S
O1815     Cr1819   1.976       .  S
O1815      C1816   1.258       .  A
C1816      C2189   1.463       .  S
Cr1818     O1820   1.782       .  S
Cr1819     O1820   1.766       .  S
C1821      C1822   1.421       .  A
C1822      C2271   1.416       .  A
C1822      C2032   1.495       .  S
C1823      C2270   1.414   1_554  A
C1823      C2060   1.496       .  S
C1824      C1825   1.421       .  A
C1824      C2077   1.488       .  S
C1825      C2274   1.420   1_554  A
C1825      C2049   1.514       .  S
C1826      C2273   1.423       .  A
C1826      C2021   1.486       .  S
O1827     Cr1845   1.981       .  S
O1827      C1835   1.261       .  A
O1828     Cr1845   2.004       .  S
O1828      C1829   1.264       .  A
C1829      C2004   1.464       .  S
C1829      O1830   1.259       .  A
O1830     Cr1846   1.978       .  S
O1831      C1832   1.269       .  A
C1832      C1990   1.498       .  S
C1832      O1833   1.261       .  A
O1833     Cr1847   1.984       .  S
O1834     Cr1847   1.997       .  S
C1835      C2231   1.462       .  S
O1836     Cr1845   1.992       .  S
O1836      C1844   1.261       .  A
O1837     Cr1845   1.982       .  S
O1837      C1838   1.260       .  A
C1838      C1962   1.494       .  S
C1838      O1839   1.270       .  A
O1839     Cr1846   2.028       .  S
O1840      C1841   1.260       .  A
C1841      C1976   1.470       .  S
C1841      O1842   1.265       .  A
O1842     Cr1847   2.006       .  S
O1843     Cr1847   1.978       .  S
C1844      C2074   1.458       .  S
Cr1845     O1848   1.770       .  S
Cr1846     O1848   1.773       .  S
C1849      C1850   1.415       .  A
C1849      C1854   1.415       .  A
C1849      C1951   1.482       .  S
C1850      C2747   1.411   1_545  A
C1850      C2130   1.496       .  S
C1851      C2746   1.411       .  A
C1851      C1852   1.422       .  A
C1851      C2007   1.486       .  S
C1852      C1853   1.423       .  A
C1852      C1934   1.502       .  S
C1853      C2750   1.411       .  A
C1853      C1993   1.491       .  S
C1854      C2749   1.410   1_545  A
C1854      C2119   1.494       .  S
O1855     Cr1873   2.002       .  S
O1855      C1863   1.265       .  A
O1856     Cr1873   1.962       .  S
O1856      C1857   1.259       .  A
C1857      C2063   1.485       .  S
C1857      O1858   1.270       .  A
O1858     Cr1874   2.022       .  S
O1859     Cr1874   2.000       .  S
O1859      C1860   1.262       .  A
C1860      C2046   1.493       .  S
C1860      O1861   1.269       .  A
O1861     Cr1875   2.028       .  S
O1862     Cr1875   1.971       .  S
O1862      C1863   1.256       .  A
C1863      C1920   1.457       .  S
O1864     Cr1873   1.972       .  S
O1864      C1872   1.258       .  A
O1865     Cr1873   2.010       .  S
O1865      C1866   1.265       .  A
C1866      C2203   1.478       .  S
C1866      O1867   1.261       .  A
O1867     Cr1874   1.994       .  S
O1868     Cr1874   2.017       .  S
O1868      C1869   1.270       .  A
C1869      C2214   1.479       .  S
C1869      O1870   1.252       .  A
O1870     Cr1875   1.951       .  S
O1871     Cr1875   2.017       .  S
O1871      C1872   1.267       .  A
C1872      C1937   1.472       .  S
Cr1873     O1876   1.764       .  S
Cr1874     O1876   1.767       .  S
Cr1875     O1876   1.765       .  S
C1877      C1878   1.423       .  A
C1877      C1882   1.422       .  A
C1877      C1906   1.485       .  S
C1878      C1879   1.415       .  A
C1878      C2105   1.493       .  S
C1879      C1880   1.410       .  A
C1879      C1979   1.492       .  S
C1880      C1881   1.410       .  A
C1880      C1923   1.471       .  S
C1881      C1882   1.405       .  A
C1881      C1965   1.495       .  S
C1882      C2091   1.487       .  S
O1883     Cr1901   1.959       .  S
O1883      C1891   1.254       .  A
O1884     Cr1901   2.011       .  S
O1884      C1885   1.267       .  A
C1885      C2172   1.475       .  S
C1885      O1886   1.260       .  A
O1886     Cr1902   1.980       .  S
O1887     Cr1902   2.007       .  S
O1887      C1888   1.267       .  A
C1888      C2158   1.479       .  S
C1888      O1889   1.257       .  A
O1889     Cr1903   1.976       .  S
O1890     Cr1903   1.996       .  S
O1890      C1891   1.262       .  A
C1891      C1948   1.451       .  S
O1892     Cr1901   2.006       .  S
O1892      C1900   1.265       .  A
O1893     Cr1901   1.977       .  S
O1893      C1894   1.258       .  A
C1894      C2018   1.481       .  S
C1894      O1895   1.268       .  A
O1895     Cr1902   2.010       .  S
O1896     Cr1902   1.977       .  S
O1896      C1897   1.261       .  A
C1897      C2035   1.467       .  S
C1897      O1898   1.266       .  A
O1898     Cr1903   1.999       .  S
O1899     Cr1903   1.979       .  S
O1899      C1900   1.258       .  A
C1900      C1909   1.468       .  S
Cr1901     O1904   1.764       .  S
Cr1902     O1904   1.770       .  S
Cr1903     O1904   1.768       .  S
C1905      C1906   1.402       .  A
C1905      C1910   1.402       .  A
C1905      H1912   1.084       .  S
C1906      C1907   1.413       .  A
C1907      C1908   1.400       .  A
C1907      N1914   1.432       .  S
C1908      C1909   1.401       .  A
C1908      H1913   1.085       .  S
C1909      C1910   1.408       .  A
C1910      N1911   1.435       .  S
N1911      O1915   1.261       .  A
N1911      O1916   1.262       .  A
N1914      O1918   1.259       .  A
N1914      O1917   1.262       .  A
C1919      C1920   1.398       .  A
C1919      C1924   1.399       .  A
C1919      H1926   1.084       .  S
C1920      C1921   1.410       .  A
C1921      C1922   1.392       .  A
C1921      N1928   1.437       .  S
C1922      C1923   1.395       .  A
C1922      H1927   1.080       .  S
C1923      C1924   1.413       .  A
C1924      N1925   1.434       .  S
N1925      O1929   1.261       .  A
N1925      O1930   1.262       .  A
N1928      O1932   1.262       .  A
N1928      O1931   1.262       .  A
C1933      C1934   1.405       .  A
C1933      C1938   1.404       .  A
C1933      H1940   1.076       .  S
C1934      C1935   1.418       .  A
C1935      C1936   1.403       .  A
C1935      N1942   1.439       .  S
C1936      C1937   1.397       .  A
C1936      H1941   1.077       .  S
C1937      C1938   1.414       .  A
C1938      N1939   1.443       .  S
N1939      O1943   1.262       .  A
N1939      O1944   1.263       .  A
N1942      O1946   1.263       .  A
N1942      O1945   1.262       .  A
C1947      C1948   1.392       .  A
C1947      C1952   1.393       .  A
C1947      H1954   1.080       .  S
C1948      C1949   1.407       .  A
C1949      C1950   1.399       .  A
C1949      N1956   1.436       .  S
C1950      C1951   1.403       .  A
C1950      H1955   1.082       .  S
C1951      C1952   1.415       .  A
C1952      N1953   1.434       .  S
N1953      O2853   1.262       .  A
N1953      O2854   1.260   1_545  A
N1956      O1960   1.263       .  A
N1956      O1959   1.262       .  A
O1957      N2849   1.262       .  A
O1958      N2849   1.262       .  A
C1961      C1962   1.406       .  A
C1961      C1966   1.407       .  A
C1961      H1968   1.084       .  S
C1962      C1963   1.415       .  A
C1963      C1964   1.404       .  A
C1963      N1970   1.428       .  S
C1964      C1965   1.400       .  A
C1964      H1969   1.082       .  S
C1965      C1966   1.417       .  A
C1966      N1967   1.436       .  S
N1967      O1971   1.262       .  A
N1967      O1972   1.261       .  A
N1970      O1974   1.262       .  A
N1970      O1973   1.262       .  A
C1975      C1976   1.401       .  A
C1975      C1980   1.404       .  A
C1975      H1982   1.084       .  S
C1976      C1977   1.408       .  A
C1977      C1978   1.400       .  A
C1977      N1984   1.434       .  S
C1978      C1979   1.403       .  A
C1978      H1983   1.083       .  S
C1979      C1980   1.415       .  A
C1980      N1981   1.429       .  S
N1981      O1985   1.260       .  A
N1981      O1986   1.263       .  A
N1984      O1988   1.262       .  A
N1984      O1987   1.263       .  A
C1989      C1990   1.413       .  A
C1989      C1994   1.408       .  A
C1989      H1996   1.083       .  S
C1990      C1991   1.417       .  A
C1991      C1992   1.402       .  A
C1991      N1998   1.429       .  S
C1992      C1993   1.402       .  A
C1992      H1997   1.084       .  S
C1993      C1994   1.405       .  A
C1994      N2891   1.428       .  S
N1995      C2890   1.428   1_545  S
N1995      O1999   1.262       .  A
N1995      O2000   1.261       .  A
N1998      O2002   1.261       .  A
N1998      O2001   1.262       .  A
C2003      C2004   1.398       .  A
C2003      C2008   1.398       .  A
C2003      H2010   1.084       .  S
C2004      C2005   1.407       .  A
C2005      C2006   1.402       .  A
C2005      N2012   1.431       .  S
C2006      C2007   1.404       .  A
C2006      H2011   1.081       .  S
C2007      C2008   1.413       .  A
C2008      N2009   1.431       .  S
N2009      O2013   1.261       .  A
N2009      O2014   1.260       .  A
N2012      O2016   1.262       .  A
N2012      O2015   1.262       .  A
C2017      C2018   1.398       .  A
C2017      C2022   1.401       .  A
C2017      H2024   1.083       .  S
C2018      C2019   1.410       .  A
C2019      C2468   1.402       .  A
C2019      N2474   1.426       .  S
C2020      C2467   1.402       .  A
C2020      C2469   1.401       .  A
C2020      H2025   1.084       .  S
C2021      C2468   1.401       .  A
C2021      C2022   1.426       .  A
C2022      N2023   1.446       .  S
N2023      O2027   1.263       .  A
N2023      O2028   1.259       .  A
N2026      C2467   1.427       .  S
N2026      O2030   1.261       .  A
N2026      O2029   1.262       .  A
C2031      C2480   1.404   1_554  A
C2031      C2036   1.396       .  A
C2031      H2038   1.079       .  S
C2032      C2479   1.406       .  A
C2032      C2033   1.415       .  A
C2033      C2034   1.401       .  A
C2033      N2040   1.433       .  S
C2034      C2035   1.399       .  A
C2034      H2039   1.081       .  S
C2035      C2484   1.403       .  A
C2036      C2483   1.402   1_554  A
C2036      N2037   1.429       .  S
N2037      O2041   1.262       .  A
N2037      O2042   1.262       .  A
N2040      O2044   1.262       .  A
N2040      O2043   1.260       .  A
C2045      C2046   1.405       .  A
C2045      C2050   1.414       .  A
C2045      H2052   1.084       .  S
C2046      C2047   1.411       .  A
C2047      C2048   1.408       .  A
C2047      N2054   1.437   1_554  S
C2048      C2049   1.409       .  A
C2048      H2053   1.084   1_554  S
C2049      C2050   1.420       .  A
C2050      N2051   1.431       .  S
N2051      O2055   1.263       .  A
N2051      O2056   1.259       .  A
N2054      O2058   1.263       .  A
N2054      O2505   1.263       .  A
O2057      N2502   1.262       .  A
C2059      C2060   1.404       .  A
C2059      C2064   1.398       .  A
C2059      H2066   1.081   1_554  S
C2060      C2061   1.415       .  A
C2061      C2062   1.400       .  A
C2061      N2516   1.430       .  S
C2062      C2063   1.406       .  A
C2062      H2515   1.084       .  S
C2063      C2064   1.410       .  A
C2064      N2065   1.428   1_554  S
N2065      O2069   1.261       .  A
N2065      O2070   1.262       .  A
H2067      C2510   1.084       .  S
N2068      C2509   1.431       .  S
N2068      O2072   1.260       .  A
N2068      O2071   1.262       .  A
C2073      C2074   1.393       .  A
C2073      C2078   1.397       .  A
C2073      H2080   1.083       .  S
C2075      C2076   1.397       .  A
C2075      N2082   1.433       .  S
C2076      H2081   1.083       .  S
C2077      C2078   1.415       .  A
C2078      N2079   1.433       .  S
N2079      O2083   1.263       .  A
N2079      O2084   1.261       .  A
N2082      O2086   1.262       .  A
N2082      O2085   1.262       .  A
C2087      C2088   1.406       .  A
C2087      C2092   1.400       .  A
C2087      H2094   1.084       .  S
C2088      C2089   1.411       .  A
C2089      C2090   1.399       .  A
C2089      N2096   1.428       .  S
C2090      C2091   1.402       .  A
C2090      H2095   1.084       .  S
C2091      C2092   1.408       .  A
C2092      N2093   1.426       .  S
N2093      O2097   1.261       .  A
N2093      O2098   1.260       .  A
N2096      O2100   1.262       .  A
N2096      O2099   1.262       .  A
C2101      C2102   1.399       .  A
C2101      C2106   1.403       .  A
C2101      H2108   1.084       .  S
C2102      C2103   1.403       .  A
C2103      C2104   1.399       .  A
C2103      N2110   1.429       .  S
C2104      C2105   1.405       .  A
C2104      H2109   1.082       .  S
C2105      C2106   1.416       .  A
C2106      N2107   1.432       .  S
N2107      O2111   1.262       .  A
N2107      O2112   1.260       .  A
N2110      O2114   1.262       .  A
N2110      O2113   1.261       .  A
C2115      C2116   1.401       .  A
C2115      C2120   1.403       .  A
C2115      H2122   1.083       .  S
C2116      C2117   1.411       .  A
C2117      C2118   1.403       .  A
C2117      N2124   1.430       .  S
C2118      C2119   1.402       .  A
C2118      H3019   1.080       .  S
C2119      C2120   1.415       .  A
C2120      N2121   1.434       .  S
N2121      O2125   1.262       .  A
N2121      O2126   1.262       .  A
H2123      C3014   1.081       .  S
N2124      O2128   1.262       .  A
N2124      O2127   1.262       .  A
C2129      C2130   1.405       .  A
C2129      C2134   1.402       .  A
C2129      H2136   1.084       .  S
C2130      C2131   1.413       .  A
C2131      C2132   1.406       .  A
C2131      N2138   1.430       .  S
C2132      C2133   1.404       .  A
C2132      H2137   1.084       .  S
C2133      C2134   1.409       .  A
C2134      N2135   1.429       .  S
N2135      O2139   1.262       .  A
N2135      O2140   1.262       .  A
N2138      O2142   1.261   1_545  A
N2138      O2141   1.262       .  A
C2143      C2144   1.411       .  A
C2143      C2148   1.404       .  A
C2143      H2150   1.084       .  S
C2145      C2146   1.409       .  A
C2145      N2152   1.443       .  S
C2146      H2151   1.083       .  S
C2147      C2148   1.402       .  A
C2148      N2149   1.431       .  S
N2149      O2153   1.262       .  A
N2149      O2154   1.262       .  A
N2152      O2156   1.259       .  A
N2152      O2155   1.263       .  A
C2157      C2158   1.398       .  A
C2157      C2610   1.393       .  A
C2157      H2612   1.084       .  S
C2158      C2159   1.415       .  A
C2159      C2160   1.404       .  A
C2159      N2166   1.426       .  S
C2160      C2161   1.399       .  A
C2160      H2165   1.082       .  S
C2161      C2610   1.411       .  A
C2162      C2605   1.392       .  A
C2162      C2609   1.412       .  A
C2162      N2163   1.426   1_556  S
N2163      O2167   1.260       .  A
N2163      O3064   1.261       .  A
H2164      C2605   1.084   1_554  S
N2166      O2170   1.262       .  A
N2166      O2169   1.262       .  A
O2168      N3059   1.259       .  A
C2171      C2172   1.394       .  A
C2171      C2624   1.399       .  A
C2171      H2626   1.084       .  S
C2172      C2173   1.409       .  A
C2173      C2174   1.406       .  A
C2173      N2180   1.428       .  S
C2174      C2175   1.408       .  A
C2174      H2179   1.083       .  S
C2175      C2624   1.417       .  A
C2176      C2619   1.397   1_554  A
C2176      C2623   1.416   1_554  A
C2176      N2177   1.428       .  S
N2177      O2181   1.261       .  A
N2177      O2182   1.260       .  A
H2178      C2619   1.084   1_554  S
N2180      O2184   1.262       .  A
N2180      O2183   1.262       .  A
C2185      C2186   1.399       .  A
C2185      C2190   1.399       .  A
C2185      H2192   1.083       .  S
C2187      C2188   1.398       .  A
C2187      N2194   1.433   1_545  S
C2188      H2193   1.083       .  S
C2189      C2190   1.414       .  A
C2190      N2191   1.439       .  S
N2191      O2195   1.263       .  A
N2191      O2196   1.262       .  A
N2194      O2198   1.261   1_655  A
N2194      O2197   1.262       .  A
C2199      C2200   1.405       .  A
C2199      C2204   1.409       .  A
C2199      H3102   1.081       .  S
C2200      C2201   1.416       .  A
C2201      C2202   1.401       .  A
C2201      N2208   1.431   1_554  S
C2202      C2203   1.396       .  A
C2202      H2207   1.082       .  S
C2203      C2204   1.411       .  A
C2204      N2205   1.429       .  S
N2205      O2209   1.262       .  A
N2205      O2210   1.262       .  A
H2206      C3095   1.082       .  S
N2208      O2212   1.262       .  A
N2208      O2211   1.263       .  A
C2213      C2214   1.401       .  A
C2213      C2218   1.396   1_554  A
C2213      H2220   1.084   1_554  S
C2214      C2215   1.419       .  A
C2215      C2216   1.393       .  A
C2215      N2222   1.427       .  S
C2216      C2217   1.394       .  A
C2216      H3117   1.082       .  S
C2217      C2218   1.410   1_554  A
C2218      N2219   1.429       .  S
N2219      O2671   1.260       .  A
N2219      O2224   1.262       .  A
H2221      C3112   1.082       .  S
N2222      O2226   1.262       .  A
N2222      O2225   1.262       .  A
O2223      N2667   1.260       .  A
C2227      C2228   1.404       .  A
C2227      C2232   1.407       .  A
C2227      H2234   1.082       .  S
C2229      C2230   1.398       .  A
C2229      N2236   1.433       .  S
C2230      H2235   1.084       .  S
C2231      C2232   1.415       .  A
C2232      N2233   1.442       .  S
N2233      O2237   1.261       .  A
N2233      O2238   1.262       .  A
N2236      O2240   1.262       .  A
N2236      O2239   1.263       .  A
C2241      C2242   1.420       .  A
C2241      C2676   1.499       .  S
C2242      C2691   1.404       .  A
C2242      C2665   1.479       .  S
C2243      C2690   1.403   1_546  A
C2243      C2623   1.495       .  S
C2244      C2245   1.417       .  A
C2245      C2694   1.415   1_546  A
C2245      C2609   1.483       .  S
C2246      C2693   1.415       .  A
C2246      C2648   1.500       .  S
O2247     Cr2265   1.985       .  S
O2248     Cr2265   2.001       .  S
O2248      C2249   1.265       .  A
C2249      C2550   1.466       .  S
C2249      O2250   1.259       .  A
O2251     Cr2266   2.020       .  S
O2251      C2252   1.267       .  A
C2252      C2536   1.489       .  S
C2252      O2253   1.258       .  A
O2253     Cr2267   1.963       .  S
O2254     Cr2267   2.008       .  S
O2254      C2255   1.265       .  A
C2255      C2595   1.472       .  S
O2256     Cr2265   2.003       .  S
O2257     Cr2265   1.981       .  S
O2257      C2258   1.260       .  A
C2258      C2564   1.480       .  S
C2258      O2259   1.268       .  A
O2260     Cr2266   1.983       .  S
O2260      C2261   1.260       .  A
C2261      C2581   1.475       .  S
C2261      O2262   1.266       .  A
O2262     Cr2267   2.007       .  S
O2263     Cr2267   1.976       .  S
O2263      C2264   1.258       .  A
C2264      C2637   1.462       .  S
Cr2266     O2268   1.780       .  S
Cr2267     O2268   1.766       .  S
C2269      C2270   1.421       .  A
C2270      C2480   1.491       .  S
C2271      C2508   1.494       .  S
C2272      C2273   1.422       .  A
C2272      C2525   1.489       .  S
C2273      C2497   1.517       .  S
C2274      C2469   1.485       .  S
O2275     Cr2293   1.984       .  S
O2275      C2283   1.261       .  A
O2276     Cr2293   2.001       .  S
O2276      C2277   1.263       .  A
C2277      C2452   1.464       .  S
C2277      O2278   1.260       .  A
O2278     Cr2294   1.979       .  S
O2279      C2280   1.267       .  A
C2280      C2438   1.495       .  S
C2280      O2281   1.260       .  A
O2281     Cr2295   1.982       .  S
O2282     Cr2295   1.992       .  S
C2283      C2679   1.468       .  S
O2284     Cr2293   1.994       .  S
O2284      C2292   1.261       .  A
O2285     Cr2293   1.983       .  S
O2285      C2286   1.261       .  A
C2286      C2410   1.490       .  S
C2286      O2287   1.269       .  A
O2287     Cr2294   2.019       .  S
O2288      C2289   1.260       .  A
C2289      C2424   1.465       .  S
C2289      O2290   1.265       .  A
O2290     Cr2295   2.005       .  S
O2291     Cr2295   1.978       .  S
C2292      C2522   1.460       .  S
Cr2293     O2296   1.768       .  S
Cr2294     O2296   1.773       .  S
C2297      C2298   1.413       .  A
C2297      C2302   1.413       .  A
C2297      C2399   1.478       .  S
C2298      C3195   1.408   1_545  A
C2298      C2578   1.494       .  S
C2299      C3194   1.408       .  A
C2299      C2300   1.418       .  A
C2299      C2455   1.486       .  S
C2300      C2301   1.419       .  A
C2300      C2382   1.493       .  S
C2301      C3198   1.407       .  A
C2301      C2441   1.486       .  S
C2302      C3197   1.409   1_545  A
C2302      C2567   1.495       .  S
O2303     Cr2321   2.003       .  S
O2303      C2311   1.264       .  A
O2304     Cr2321   1.959       .  S
O2304      C2305   1.258       .  A
C2305      C2511   1.485       .  S
C2305      O2306   1.270       .  A
O2306     Cr2322   2.021       .  S
O2307     Cr2322   2.004       .  S
O2307      C2308   1.264       .  A
C2308      C2494   1.497       .  S
C2308      O2309   1.269       .  A
O2309     Cr2323   2.028       .  S
O2310     Cr2323   1.974       .  S
O2310      C2311   1.258       .  A
C2311      C2368   1.460       .  S
O2312     Cr2321   1.965       .  S
O2312      C2320   1.256       .  A
O2313     Cr2321   2.010       .  S
O2313      C2314   1.264       .  A
C2314      C2651   1.481       .  S
C2314      O2315   1.262       .  A
O2315     Cr2322   1.999       .  S
O2316     Cr2322   2.016       .  S
O2316      C2317   1.270       .  A
C2317      C2662   1.480       .  S
C2317      O2318   1.253       .  A
O2318     Cr2323   1.955       .  S
O2319     Cr2323   2.013       .  S
O2319      C2320   1.267       .  A
C2320      C2385   1.466       .  S
Cr2321     O2324   1.765       .  S
Cr2322     O2324   1.767       .  S
Cr2323     O2324   1.765       .  S
C2325      C2326   1.422       .  A
C2325      C2330   1.421       .  A
C2325      C2354   1.483       .  S
C2326      C2327   1.413       .  A
C2326      C2553   1.490       .  S
C2327      C2328   1.409       .  A
C2327      C2427   1.488       .  S
C2328      C2329   1.409       .  A
C2328      C2371   1.475       .  S
C2329      C2330   1.406       .  A
C2329      C2413   1.491       .  S
C2330      C2539   1.488       .  S
O2331     Cr2349   1.958       .  S
O2331      C2339   1.253       .  A
O2332     Cr2349   2.006       .  S
O2332      C2333   1.266       .  A
C2333      C2620   1.468       .  S
C2333      O2334   1.259       .  A
O2334     Cr2350   1.975       .  S
O2335     Cr2350   2.005       .  S
O2335      C2336   1.266       .  A
C2336      C2606   1.479       .  S
C2336      O2337   1.257       .  A
O2337     Cr2351   1.978       .  S
O2338     Cr2351   1.996       .  S
O2338      C2339   1.262       .  A
C2339      C2396   1.449       .  S
O2340     Cr2349   2.005       .  S
O2340      C2348   1.265       .  A
O2341     Cr2349   1.978       .  S
O2341      C2342   1.259       .  A
C2342      C2466   1.481       .  S
C2342      O2343   1.268       .  A
O2343     Cr2350   2.009       .  S
O2344     Cr2350   1.972       .  S
O2344      C2345   1.260       .  A
C2345      C2483   1.464       .  S
C2345      O2346   1.266       .  A
O2346     Cr2351   1.999       .  S
O2347     Cr2351   1.982       .  S
O2347      C2348   1.259       .  A
C2348      C2357   1.469       .  S
Cr2349     O2352   1.763       .  S
Cr2350     O2352   1.768       .  S
Cr2351     O2352   1.767       .  S
C2353      C2354   1.400       .  A
C2353      C2358   1.400       .  A
C2353      H2360   1.084       .  S
C2354      C2355   1.409       .  A
C2355      C2356   1.399       .  A
C2355      N2362   1.429       .  S
C2356      C2357   1.402       .  A
C2356      H2361   1.084       .  S
C2357      C2358   1.407       .  A
C2358      N2359   1.430       .  S
N2359      O2363   1.260       .  A
N2359      O2364   1.261       .  A
N2362      O2366   1.260       .  A
N2362      O2365   1.261       .  A
C2367      C2368   1.398       .  A
C2367      C2372   1.399       .  A
C2367      H2374   1.084       .  S
C2368      C2369   1.412       .  A
C2369      C2370   1.395       .  A
C2369      N2376   1.440       .  S
C2370      C2371   1.396       .  A
C2370      H2375   1.079       .  S
C2371      C2372   1.412       .  A
C2372      N2373   1.433       .  S
N2373      O2377   1.261       .  A
N2373      O2378   1.262       .  A
N2376      O2380   1.262       .  A
N2376      O2379   1.262       .  A
C2381      C2382   1.403       .  A
C2381      C2386   1.403       .  A
C2381      H2388   1.078       .  S
C2382      C2383   1.416       .  A
C2383      C2384   1.398       .  A
C2383      N2390   1.438       .  S
C2384      C2385   1.395       .  A
C2384      H2389   1.078       .  S
C2385      C2386   1.415       .  A
C2386      N2387   1.443       .  S
N2387      O2391   1.262       .  A
N2387      O2392   1.263       .  A
N2390      O2394   1.263       .  A
N2390      O2393   1.262       .  A
C2395      C2396   1.394       .  A
C2395      C2400   1.395       .  A
C2395      H2402   1.081       .  S
C2396      C2397   1.408       .  A
C2397      C2398   1.396       .  A
C2397      N2404   1.437       .  S
C2398      C2399   1.401       .  A
C2398      H2403   1.081       .  S
C2399      C2400   1.414       .  A
C2400      N2401   1.436       .  S
N2401      O3301   1.262   1_545  A
N2401      O3302   1.262   1_545  A
N2404      O2408   1.263       .  A
N2404      O2407   1.262       .  A
O2405      N3297   1.262       .  A
O2406      N3297   1.261       .  A
C2409      C2410   1.405       .  A
C2409      C2414   1.404       .  A
C2409      H2416   1.084       .  S
C2410      C2411   1.414       .  A
C2411      C2412   1.403       .  A
C2411      N2418   1.429       .  S
C2412      C2413   1.400       .  A
C2412      H2417   1.082       .  S
C2413      C2414   1.417       .  A
C2414      N2415   1.437       .  S
N2415      O2419   1.262       .  A
N2415      O2420   1.261       .  A
N2418      O2422   1.262       .  A
N2418      O2421   1.262       .  A
C2423      C2424   1.401       .  A
C2423      C2428   1.403       .  A
C2423      H2430   1.084       .  S
C2424      C2425   1.405       .  A
C2425      C2426   1.396       .  A
C2425      N2432   1.432       .  S
C2426      C2427   1.402       .  A
C2426      H2431   1.083       .  S
C2427      C2428   1.414       .  A
C2428      N2429   1.428       .  S
N2429      O2433   1.260       .  A
N2429      O2434   1.262       .  A
N2432      O2436   1.262       .  A
N2432      O2435   1.263       .  A
C2437      C2438   1.413       .  A
C2437      C2442   1.406       .  A
C2437      H2444   1.083       .  S
C2438      C2439   1.419       .  A
C2439      C2440   1.401       .  A
C2439      N2446   1.433       .  S
C2440      C2441   1.400       .  A
C2440      H2445   1.084       .  S
C2441      C2442   1.403       .  A
C2442      N3339   1.428       .  S
N2443      C3338   1.430   1_545  S
N2443      O2447   1.262       .  A
N2443      O2448   1.262   1_545  A
N2446      O2450   1.262       .  A
N2446      O2449   1.262       .  A
C2451      C2452   1.398       .  A
C2451      C2456   1.398       .  A
C2451      H2458   1.084       .  S
C2452      C2453   1.408       .  A
C2453      C2454   1.402       .  A
C2453      N2460   1.432       .  S
C2454      C2455   1.403       .  A
C2454      H2459   1.081       .  S
C2455      C2456   1.413       .  A
C2456      N2457   1.431       .  S
N2457      O2461   1.260       .  A
N2457      O2462   1.261       .  A
N2460      O2464   1.262       .  A
N2460      O2463   1.262       .  A
C2465      C2466   1.398       .  A
C2465      C2470   1.401   1_556  A
C2465      H2472   1.083   1_556  S
C2466      C2467   1.411       .  A
C2468      H2473   1.084       .  S
C2469      C2470   1.425   1_556  A
C2470      N2471   1.446       .  S
N2471      O2475   1.263       .  A
N2471      O2476   1.259       .  A
N2474      O2478   1.261       .  A
N2474      O2477   1.262       .  A
C2479      C2484   1.398       .  A
C2479      H2486   1.078       .  S
C2480      C2481   1.415       .  A
C2481      C2482   1.401       .  A
C2481      N2488   1.435       .  S
C2482      C2483   1.399       .  A
C2482      H2487   1.080       .  S
C2484      N2485   1.430       .  S
N2485      O2489   1.262       .  A
N2485      O2490   1.262       .  A
N2488      O2492   1.262       .  A
N2488      O2491   1.260       .  A
C2493      C2494   1.406       .  A
C2493      C2498   1.416       .  A
C2493      H2500   1.084       .  S
C2494      C2495   1.413       .  A
C2495      C2496   1.409       .  A
C2495      N2502   1.438       .  S
C2496      C2497   1.409       .  A
C2496      H2501   1.084       .  S
C2497      C2498   1.420       .  A
C2498      N2499   1.432       .  S
N2499      O2503   1.263       .  A
N2499      O2504   1.259       .  A
N2502      O2506   1.263       .  A
C2507      C2508   1.403       .  A
C2507      C2512   1.397       .  A
C2507      H2514   1.080       .  S
C2508      C2509   1.414       .  A
C2509      C2510   1.401       .  A
C2510      C2511   1.407       .  A
C2511      C2512   1.410       .  A
C2512      N2513   1.429       .  S
N2513      O2517   1.262       .  A
N2513      O2518   1.262       .  A
N2516      O2520   1.260       .  A
N2516      O2519   1.262       .  A
C2521      C2522   1.394       .  A
C2521      C2526   1.399       .  A
C2521      H2528   1.083       .  S
C2523      C2524   1.400       .  A
C2523      N2530   1.434       .  S
C2524      H2529   1.083       .  S
C2525      C2526   1.416       .  A
C2526      N2527   1.434       .  S
N2527      O2531   1.263       .  A
N2527      O2532   1.261       .  A
N2530      O2534   1.262       .  A
N2530      O2533   1.262       .  A
C2535      C2536   1.408       .  A
C2535      C2540   1.399       .  A
C2535      H2542   1.084       .  S
C2536      C2537   1.416       .  A
C2537      C2538   1.403       .  A
C2537      N2544   1.433       .  S
C2538      C2539   1.402       .  A
C2538      H2543   1.085       .  S
C2539      C2540   1.407       .  A
C2540      N2541   1.427       .  S
N2541      O2545   1.261       .  A
N2541      O2546   1.260       .  A
N2544      O2548   1.262       .  A
N2544      O2547   1.262       .  A
C2549      C2550   1.400       .  A
C2549      C2554   1.404       .  A
C2549      H2556   1.084       .  S
C2550      C2551   1.403       .  A
C2551      C2552   1.398       .  A
C2551      N2558   1.429       .  S
C2552      C2553   1.404       .  A
C2552      H2557   1.083       .  S
C2553      C2554   1.416       .  A
C2554      N2555   1.432       .  S
N2555      O2559   1.262       .  A
N2555      O2560   1.260       .  A
N2558      O2562   1.262       .  A
N2558      O2561   1.261       .  A
C2563      C2564   1.401       .  A
C2563      C2568   1.403       .  A
C2563      H2570   1.082       .  S
C2564      C2565   1.410       .  A
C2565      C2566   1.403       .  A
C2565      N2572   1.430       .  S
C2566      C2567   1.403       .  A
C2566      H3467   1.080       .  S
C2567      C2568   1.416       .  A
C2568      N2569   1.434       .  S
N2569      O2573   1.262       .  A
N2569      O2574   1.261       .  A
H2571      C3462   1.080       .  S
N2572      O2576   1.262       .  A
N2572      O2575   1.262       .  A
C2577      C2578   1.405       .  A
C2577      C2582   1.400       .  A
C2577      H2584   1.084       .  S
C2578      C2579   1.414       .  A
C2579      C2580   1.405       .  A
C2579      N2586   1.429       .  S
C2580      C2581   1.402       .  A
C2580      H2585   1.084       .  S
C2581      C2582   1.406       .  A
C2582      N2583   1.427       .  S
N2583      O2587   1.261       .  A
N2583      O2588   1.261       .  A
N2586      O2590   1.261   1_545  A
N2586      O2589   1.262       .  A
C2591      C2592   1.410       .  A
C2591      C2596   1.403       .  A
C2591      H2598   1.084       .  S
C2593      C2594   1.408       .  A
C2593      N2600   1.443       .  S
C2594      H2599   1.084       .  S
C2595      C2596   1.402       .  A
C2596      N2597   1.431       .  S
N2597      O2601   1.262       .  A
N2597      O2602   1.262       .  A
N2600      O2604   1.259   1_556  A
N2600      O2603   1.263       .  A
C2605      C2606   1.396       .  A
C2606      C2607   1.415       .  A
C2607      C2608   1.405       .  A
C2607      N2614   1.428       .  S
C2608      C2609   1.400       .  A
C2608      H2613   1.082   1_545  S
C2610      N2611   1.426       .  S
N2611      O2615   1.260       .  A
N2611      O3512   1.261       .  A
N2614      O2618   1.262       .  A
N2614      O2617   1.262       .  A
O2616      N3507   1.260       .  A
C2619      C2620   1.394       .  A
C2620      C2621   1.408       .  A
C2621      C2622   1.403       .  A
C2621      N2628   1.428       .  S
C2622      C2623   1.405       .  A
C2622      H2627   1.083       .  S
C2624      N2625   1.427       .  S
N2625      O2629   1.262       .  A
N2625      O2630   1.260       .  A
N2628      O2632   1.262       .  A
N2628      O2631   1.262       .  A
C2633      C2634   1.400       .  A
C2633      C2638   1.400       .  A
C2633      H2640   1.082       .  S
C2635      C2636   1.400       .  A
C2635      N2642   1.433   1_545  S
C2636      H2641   1.083       .  S
C2637      C2638   1.414       .  A
C2638      N2639   1.439       .  S
N2639      O2643   1.263       .  A
N2639      O2644   1.262       .  A
N2642      O2646   1.261   1_655  A
N2642      O2645   1.262       .  A
C2647      C2648   1.405       .  A
C2647      C2652   1.410       .  A
C2647      H3550   1.081       .  S
C2648      C2649   1.416       .  A
C2649      C2650   1.402       .  A
C2649      N2656   1.430       .  S
C2650      C2651   1.396       .  A
C2650      H2655   1.083       .  S
C2651      C2652   1.412       .  A
C2652      N2653   1.428       .  S
N2653      O2657   1.262       .  A
N2653      O2658   1.262       .  A
H2654      C3543   1.081       .  S
N2656      O2660   1.261       .  A
N2656      O2659   1.262       .  A
C2661      C2662   1.399       .  A
C2661      C2666   1.396       .  A
C2661      H2668   1.084       .  S
C2662      C2663   1.417       .  A
C2663      C2664   1.395       .  A
C2663      N2670   1.426       .  S
C2664      C2665   1.395       .  A
C2664      H3565   1.082       .  S
C2665      C2666   1.412       .  A
C2666      N2667   1.427       .  S
N2667      O2672   1.262       .  A
H2669      C3560   1.082       .  S
N2670      O2674   1.262       .  A
N2670      O2673   1.262       .  A
C2675      C2676   1.405       .  A
C2675      C2680   1.407       .  A
C2675      H2682   1.082       .  S
C2677      C2678   1.398       .  A
C2677      N2684   1.432       .  S
C2678      H2683   1.084       .  S
C2679      C2680   1.413       .  A
C2680      N2681   1.440       .  S
N2681      O2685   1.261       .  A
N2681      O2686   1.262       .  A
N2684      O2688   1.262       .  A
N2684      O2687   1.263       .  A
C2689      C2690   1.418       .  A
C2689      C3124   1.491       .  S
C2690      C3113   1.481       .  S
C2691      C3071   1.499       .  S
C2692      C2693   1.418       .  A
C2693      C3057   1.481       .  S
C2694      C3096   1.502       .  S
O2695     Cr2713   1.982       .  S
O2696     Cr2713   2.001       .  S
O2696      C2697   1.264       .  A
C2697      C2998   1.468       .  S
C2697      O2698   1.259       .  A
O2699     Cr2714   2.019       .  S
O2699      C2700   1.266       .  A
C2700      C2984   1.490       .  S
C2700      O2701   1.258       .  A
O2701     Cr2715   1.966       .  S
O2702     Cr2715   2.007       .  S
O2702      C2703   1.264       .  A
C2703      C3043   1.470       .  S
O2704     Cr2713   2.001       .  S
O2705     Cr2713   1.980       .  S
O2705      C2706   1.261       .  A
C2706      C3012   1.480       .  S
C2706      O2707   1.269       .  A
O2708     Cr2714   1.987       .  S
O2708      C2709   1.261       .  A
C2709      C3029   1.479       .  S
C2709      O2710   1.266       .  A
O2710     Cr2715   2.006       .  S
O2711     Cr2715   1.983       .  S
O2711      C2712   1.260       .  A
C2712      C3085   1.469       .  S
Cr2714     O2716   1.782       .  S
Cr2715     O2716   1.766       .  S
C2717      C2718   1.420       .  A
C2718      C3167   1.414       .  A
C2718      C2928   1.494       .  S
C2719      C3166   1.415   1_554  A
C2719      C2956   1.494       .  S
C2720      C2721   1.420       .  A
C2720      C2973   1.488       .  S
C2721      C3170   1.421   1_554  A
C2721      C2945   1.516       .  S
C2722      C3169   1.422       .  A
C2722      C2917   1.487       .  S
O2723     Cr2741   1.977       .  S
O2723      C2731   1.260       .  A
O2724     Cr2741   2.001       .  S
O2724      C2725   1.262       .  A
C2725      C2900   1.463       .  S
C2725      O2726   1.259       .  A
O2726     Cr2742   1.979       .  S
O2727      C2728   1.267       .  A
C2728      C2886   1.498       .  S
C2728      O2729   1.260       .  A
O2729     Cr2743   1.987       .  S
O2730     Cr2743   1.996       .  S
C2731      C3127   1.461       .  S
O2732     Cr2741   1.994       .  S
O2732      C2740   1.261       .  A
O2733     Cr2741   1.979       .  S
O2733      C2734   1.260       .  A
C2734      C2858   1.494       .  S
C2734      O2735   1.272       .  A
O2735     Cr2742   2.029       .  S
O2736      C2737   1.261       .  A
C2737      C2872   1.472       .  S
C2737      O2738   1.266       .  A
O2738     Cr2743   2.011       .  S
O2739     Cr2743   1.981       .  S
C2740      C2970   1.460       .  S
Cr2741     O2744   1.770       .  S
Cr2742     O2744   1.771       .  S
C2745      C2746   1.417       .  A
C2745      C2750   1.417       .  A
C2745      C2847   1.486       .  S
C2746      C3026   1.498       .  S
C2747      C2748   1.421       .  A
C2747      C2903   1.489       .  S
C2748      C2749   1.423       .  A
C2748      C2830   1.499       .  S
C2749      C2889   1.490       .  S
C2750      C3015   1.495       .  S
O2751     Cr2769   2.003       .  S
O2751      C2759   1.264       .  A
O2752     Cr2769   1.963       .  S
O2752      C2753   1.259       .  A
C2753      C2959   1.485       .  S
C2753      O2754   1.270       .  A
O2754     Cr2770   2.023       .  S
O2755     Cr2770   2.007       .  S
O2755      C2756   1.264       .  A
C2756      C2942   1.497       .  S
C2756      O2757   1.269       .  A
O2757     Cr2771   2.027       .  S
O2758     Cr2771   1.974       .  S
O2758      C2759   1.257       .  A
C2759      C2816   1.460       .  S
O2760     Cr2769   1.971       .  S
O2760      C2768   1.257       .  A
O2761     Cr2769   2.008       .  S
O2761      C2762   1.264       .  A
C2762      C3099   1.481       .  S
C2762      O2763   1.262       .  A
O2763     Cr2770   2.000       .  S
O2764     Cr2770   2.017       .  S
O2764      C2765   1.270       .  A
C2765      C3110   1.482       .  S
C2765      O2766   1.254       .  A
O2766     Cr2771   1.957       .  S
O2767     Cr2771   2.016       .  S
O2767      C2768   1.267       .  A
C2768      C2833   1.471       .  S
Cr2769     O2772   1.766       .  S
Cr2770     O2772   1.768       .  S
Cr2771     O2772   1.766       .  S
C2773      C2774   1.424       .  A
C2773      C2778   1.423       .  A
C2773      C2802   1.486       .  S
C2774      C2775   1.413       .  A
C2774      C3001   1.489       .  S
C2775      C2776   1.413       .  A
C2775      C2875   1.498       .  S
C2776      C2777   1.412       .  A
C2776      C2819   1.473       .  S
C2777      C2778   1.408       .  A
C2777      C2861   1.497       .  S
C2778      C2987   1.492       .  S
O2779     Cr2797   1.965       .  S
O2779      C2787   1.255       .  A
O2780     Cr2797   2.008       .  S
O2780      C2781   1.266       .  A
C2781      C3068   1.472       .  S
C2781      O2782   1.260       .  A
O2782     Cr2798   1.979       .  S
O2783     Cr2798   2.002       .  S
O2783      C2784   1.266       .  A
C2784      C3054   1.479       .  S
C2784      O2785   1.258       .  A
O2785     Cr2799   1.980       .  S
O2786     Cr2799   1.999       .  S
O2786      C2787   1.263       .  A
C2787      C2844   1.457       .  S
O2788     Cr2797   2.005       .  S
O2788      C2796   1.265       .  A
O2789     Cr2797   1.980       .  S
O2789      C2790   1.259       .  A
C2790      C2914   1.479       .  S
C2790      O2791   1.267       .  A
O2791     Cr2798   2.006       .  S
O2792     Cr2798   1.976       .  S
O2792      C2793   1.260       .  A
C2793      C2931   1.467       .  S
C2793      O2794   1.266       .  A
O2794     Cr2799   2.000       .  S
O2795     Cr2799   1.987       .  S
O2795      C2796   1.260       .  A
C2796      C2805   1.472       .  S
Cr2797     O2800   1.763       .  S
Cr2798     O2800   1.771       .  S
Cr2799     O2800   1.768       .  S
C2801      C2802   1.403       .  A
C2801      C2806   1.402       .  A
C2801      H2808   1.084       .  S
C2802      C2803   1.409       .  A
C2803      C2804   1.398       .  A
C2803      N2810   1.428       .  S
C2804      C2805   1.402       .  A
C2804      H2809   1.084       .  S
C2805      C2806   1.408       .  A
C2806      N2807   1.429       .  S
N2807      O2811   1.260       .  A
N2807      O2812   1.261       .  A
N2810      O2814   1.260       .  A
N2810      O2813   1.260       .  A
C2815      C2816   1.399       .  A
C2815      C2820   1.399       .  A
C2815      H2822   1.084       .  S
C2816      C2817   1.411       .  A
C2817      C2818   1.393       .  A
C2817      N2824   1.435       .  S
C2818      C2819   1.395       .  A
C2818      H2823   1.081       .  S
C2819      C2820   1.412       .  A
C2820      N2821   1.433       .  S
N2821      O2825   1.261       .  A
N2821      O2826   1.262       .  A
N2824      O2828   1.262       .  A
N2824      O2827   1.262       .  A
C2829      C2830   1.404       .  A
C2829      C2834   1.404       .  A
C2829      H2836   1.082       .  S
C2830      C2831   1.418       .  A
C2831      C2832   1.400       .  A
C2831      N2838   1.439       .  S
C2832      C2833   1.394       .  A
C2832      H2837   1.090       .  S
C2833      C2834   1.414       .  A
C2834      N2835   1.442       .  S
N2835      O2839   1.262       .  A
N2835      O2840   1.262       .  A
N2838      O2842   1.263       .  A
N2838      O2841   1.262   1_565  A
C2843      C2844   1.394       .  A
C2843      C2848   1.398       .  A
C2843      H2850   1.080       .  S
C2844      C2845   1.407       .  A
C2845      C2846   1.400       .  A
C2845      N2852   1.437       .  S
C2846      C2847   1.404       .  A
C2846      H2851   1.082       .  S
C2847      C2848   1.417       .  A
C2848      N2849   1.438       .  S
N2852      O2856   1.263       .  A
N2852      O2855   1.261       .  A
C2857      C2858   1.404       .  A
C2857      C2862   1.407       .  A
C2857      H2864   1.084       .  S
C2858      C2859   1.415       .  A
C2859      C2860   1.403       .  A
C2859      N2866   1.428       .  S
C2860      C2861   1.401       .  A
C2860      H2865   1.081       .  S
C2861      C2862   1.419       .  A
C2862      N2863   1.437       .  S
N2863      O2867   1.262       .  A
N2863      O2868   1.260       .  A
N2866      O2870   1.261       .  A
N2866      O2869   1.262       .  A
C2871      C2872   1.401       .  A
C2871      C2876   1.406       .  A
C2871      H2878   1.084       .  S
C2872      C2873   1.403       .  A
C2873      C2874   1.397       .  A
C2873      N2880   1.428       .  S
C2874      C2875   1.405       .  A
C2874      H2879   1.081       .  S
C2875      C2876   1.417       .  A
C2876      N2877   1.427       .  S
N2877      O2881   1.261       .  A
N2877      O2882   1.262       .  A
N2880      O2884   1.261       .  A
N2880      O2883   1.262       .  A
C2885      C2886   1.413       .  A
C2885      C2890   1.407       .  A
C2885      H2892   1.083       .  S
C2886      C2887   1.419       .  A
C2887      C2888   1.401       .  A
C2887      N2894   1.432       .  S
C2888      C2889   1.401       .  A
C2888      H2893   1.084       .  S
C2889      C2890   1.405       .  A
N2891      O2895   1.262       .  A
N2891      O2896   1.261       .  A
N2894      O2898   1.262       .  A
N2894      O2897   1.262       .  A
C2899      C2900   1.397       .  A
C2899      C2904   1.398       .  A
C2899      H2906   1.084       .  S
C2900      C2901   1.407       .  A
C2901      C2902   1.401       .  A
C2901      N2908   1.431       .  S
C2902      C2903   1.404       .  A
C2902      H2907   1.080       .  S
C2903      C2904   1.415       .  A
C2904      N2905   1.432       .  S
N2905      O2909   1.260       .  A
N2905      O2910   1.261       .  A
N2908      O2912   1.262       .  A
N2908      O2911   1.262       .  A
C2913      C2914   1.397       .  A
C2913      C2918   1.401       .  A
C2913      H2920   1.083       .  S
C2914      C2915   1.410       .  A
C2915      C3364   1.402       .  A
C2915      N3370   1.427       .  S
C2916      C3363   1.400       .  A
C2916      C3365   1.400       .  A
C2916      H2921   1.084       .  S
C2917      C3364   1.402       .  A
C2917      C2918   1.426       .  A
C2918      N2919   1.446       .  S
N2919      O2923   1.263       .  A
N2919      O2924   1.259       .  A
N2922      C3363   1.427       .  S
N2922      O2926   1.261       .  A
N2922      O2925   1.262       .  A
C2927      C3376   1.405   1_554  A
C2927      C2932   1.399       .  A
C2927      H2934   1.080       .  S
C2928      C3375   1.405       .  A
C2928      C2929   1.415       .  A
C2929      C2930   1.401       .  A
C2929      N2936   1.434       .  S
C2930      C2931   1.399       .  A
C2930      H2935   1.080       .  S
C2931      C3380   1.402       .  A
C2932      C3379   1.403   1_554  A
C2932      N2933   1.429       .  S
N2933      O2937   1.262       .  A
N2933      O2938   1.262       .  A
N2936      O2940   1.262       .  A
N2936      O2939   1.260       .  A
C2941      C2942   1.406       .  A
C2941      C2946   1.417       .  A
C2941      H2948   1.084       .  S
C2942      C2943   1.410       .  A
C2943      C2944   1.408       .  A
C2943      N2950   1.435   1_554  S
C2944      C2945   1.409       .  A
C2944      H2949   1.084   1_554  S
C2945      C2946   1.421       .  A
C2946      N2947   1.432       .  S
N2947      O2951   1.263       .  A
N2947      O2952   1.259       .  A
N2950      O2954   1.262       .  A
N2950      O3401   1.262       .  A
O2953      N3398   1.262       .  A
C2955      C2956   1.403       .  A
C2955      C2960   1.398       .  A
C2955      H2962   1.081   1_554  S
C2956      C2957   1.413       .  A
C2957      C2958   1.401       .  A
C2957      N3412   1.430       .  S
C2958      C2959   1.406       .  A
C2958      H3411   1.084       .  S
C2959      C2960   1.410       .  A
C2960      N2961   1.428   1_554  S
N2961      O2965   1.261       .  A
N2961      O2966   1.262       .  A
H2963      C3406   1.084       .  S
N2964      C3405   1.430       .  S
N2964      O2968   1.260       .  A
N2964      O2967   1.262       .  A
C2969      C2970   1.394       .  A
C2969      C2974   1.399       .  A
C2969      H2976   1.082       .  S
C2971      C2972   1.398       .  A
C2971      N2978   1.433       .  S
C2972      H2977   1.083       .  S
C2973      C2974   1.415       .  A
C2974      N2975   1.434       .  S
N2975      O2979   1.263       .  A
N2975      O2980   1.261       .  A
N2978      O2982   1.262       .  A
N2978      O2981   1.262       .  A
C2983      C2984   1.407       .  A
C2983      C2988   1.399       .  A
C2983      H2990   1.084       .  S
C2984      C2985   1.415       .  A
C2985      C2986   1.404       .  A
C2985      N2992   1.431       .  S
C2986      C2987   1.403       .  A
C2986      H2991   1.084       .  S
C2987      C2988   1.408       .  A
C2988      N2989   1.427       .  S
N2989      O2993   1.261       .  A
N2989      O2994   1.260       .  A
N2992      O2996   1.262       .  A
N2992      O2995   1.262       .  A
C2997      C2998   1.401       .  A
C2997      C3002   1.406       .  A
C2997      H3004   1.084       .  S
C2998      C2999   1.403       .  A
C2999      C3000   1.399       .  A
C2999      N3006   1.430       .  S
C3000      C3001   1.403       .  A
C3000      H3005   1.084       .  S
C3001      C3002   1.415       .  A
C3002      N3003   1.433       .  S
N3003      O3007   1.262       .  A
N3003      O3008   1.260       .  A
N3006      O3010   1.262       .  A
N3006      O3009   1.261       .  A
C3011      C3012   1.401       .  A
C3011      C3016   1.402       .  A
C3011      H3018   1.083       .  S
C3012      C3013   1.411       .  A
C3013      C3014   1.404       .  A
C3013      N3020   1.430       .  S
C3014      C3015   1.403       .  A
C3015      C3016   1.414       .  A
C3016      N3017   1.432       .  S
N3017      O3021   1.262       .  A
N3017      O3022   1.262       .  A
N3020      O3024   1.262       .  A
N3020      O3023   1.262       .  A
C3025      C3026   1.406       .  A
C3025      C3030   1.403       .  A
C3025      H3032   1.084       .  S
C3026      C3027   1.413       .  A
C3027      C3028   1.405       .  A
C3027      N3034   1.428       .  S
C3028      C3029   1.402       .  A
C3028      H3033   1.084       .  S
C3029      C3030   1.408       .  A
C3030      N3031   1.428       .  S
N3031      O3035   1.261       .  A
N3031      O3036   1.262       .  A
N3034      O3038   1.260       .  A
N3034      O3037   1.262       .  A
C3039      C3040   1.411       .  A
C3039      C3044   1.402       .  A
C3039      H3046   1.084       .  S
C3041      C3042   1.408       .  A
C3041      N3048   1.443       .  S
C3042      H3047   1.084       .  S
C3043      C3044   1.401       .  A
C3044      N3045   1.431       .  S
N3045      O3049   1.262       .  A
N3045      O3050   1.262       .  A
N3048      O3052   1.259       .  A
N3048      O3051   1.263       .  A
C3053      C3054   1.398       .  A
C3053      C3506   1.392       .  A
C3053      H3508   1.084       .  S
C3054      C3055   1.415       .  A
C3055      C3056   1.404       .  A
C3055      N3062   1.427       .  S
C3056      C3057   1.399       .  A
C3056      H3061   1.082       .  S
C3057      C3506   1.411       .  A
C3058      C3501   1.392       .  A
C3058      C3505   1.411       .  A
C3058      N3059   1.425   1_556  S
N3059      O3063   1.261       .  A
H3060      C3501   1.084   1_554  S
N3062      O3066   1.262       .  A
N3062      O3065   1.262       .  A
C3067      C3068   1.396       .  A
C3067      C3520   1.399       .  A
C3067      H3522   1.084       .  S
C3068      C3069   1.408       .  A
C3069      C3070   1.404       .  A
C3069      N3076   1.428       .  S
C3070      C3071   1.406       .  A
C3070      H3075   1.082       .  S
C3071      C3520   1.417       .  A
C3072      C3515   1.399   1_554  A
C3072      C3519   1.417   1_554  A
C3072      N3073   1.428       .  S
N3073      O3077   1.261       .  A
N3073      O3078   1.260       .  A
H3074      C3515   1.084   1_554  S
N3076      O3080   1.262       .  A
N3076      O3079   1.262       .  A
C3081      C3082   1.399       .  A
C3081      C3086   1.402       .  A
C3081      H3088   1.083       .  S
C3083      C3084   1.400       .  A
C3083      N3090   1.433       .  S
C3084      H3089   1.083       .  S
C3085      C3086   1.415       .  A
C3086      N3087   1.438       .  S
N3087      O3091   1.263       .  A
N3087      O3092   1.262       .  A
N3090      O3094   1.261   1_655  A
N3090      O3093   1.262       .  A
C3095      C3096   1.406       .  A
C3095      C3100   1.411       .  A
C3096      C3097   1.416       .  A
C3097      C3098   1.400       .  A
C3097      N3104   1.431   1_554  S
C3098      C3099   1.396       .  A
C3098      H3103   1.082       .  S
C3099      C3100   1.412       .  A
C3100      N3101   1.428       .  S
N3101      O3105   1.262       .  A
N3101      O3106   1.262       .  A
N3104      O3108   1.261       .  A
N3104      O3107   1.263       .  A
C3109      C3110   1.401       .  A
C3109      C3114   1.398   1_554  A
C3109      H3116   1.084   1_554  S
C3110      C3111   1.417       .  A
C3111      C3112   1.394       .  A
C3111      N3118   1.425       .  S
C3112      C3113   1.395       .  A
C3113      C3114   1.412   1_554  A
C3114      N3115   1.428       .  S
N3115      O3567   1.260       .  A
N3115      O3120   1.262       .  A
N3118      O3122   1.262       .  A
N3118      O3121   1.262       .  A
O3119      N3563   1.260       .  A
C3123      C3124   1.403       .  A
C3123      C3128   1.405       .  A
C3123      H3130   1.082       .  S
C3125      C3126   1.397       .  A
C3125      N3132   1.430       .  S
C3126      H3131   1.084       .  S
C3127      C3128   1.415       .  A
C3128      N3129   1.443       .  S
N3129      O3133   1.262       .  A
N3129      O3134   1.262       .  A
N3132      O3136   1.261   1_565  A
N3132      O3135   1.263   1_565  A
C3137      C3138   1.419       .  A
C3137      C3572   1.490       .  S
C3138      C3561   1.477       .  S
C3139      C3519   1.498       .  S
C3140      C3141   1.418       .  A
C3141      C3505   1.482       .  S
C3142      C3544   1.500       .  S
O3143     Cr3161   1.985       .  S
O3144     Cr3161   2.001       .  S
O3144      C3145   1.264       .  A
C3145      C3446   1.468       .  S
C3145      O3146   1.260       .  A
O3147     Cr3162   2.022       .  S
O3147      C3148   1.268       .  A
C3148      C3432   1.488       .  S
C3148      O3149   1.258       .  A
O3149     Cr3163   1.961       .  S
O3150     Cr3163   2.012       .  S
O3150      C3151   1.265       .  A
C3151      C3491   1.478       .  S
O3152     Cr3161   2.000       .  S
O3153     Cr3161   1.981       .  S
O3153      C3154   1.260       .  A
C3154      C3460   1.478       .  S
C3154      O3155   1.268       .  A
O3156     Cr3162   1.985       .  S
O3156      C3157   1.260       .  A
C3157      C3477   1.477       .  S
C3157      O3158   1.266       .  A
O3158     Cr3163   2.007       .  S
O3159     Cr3163   1.975       .  S
O3159      C3160   1.258       .  A
C3160      C3533   1.461       .  S
Cr3162     O3164   1.782       .  S
Cr3163     O3164   1.766       .  S
C3165      C3166   1.421       .  A
C3166      C3376   1.494       .  S
C3167      C3404   1.493       .  S
C3168      C3169   1.423       .  A
C3168      C3421   1.490       .  S
C3169      C3393   1.518       .  S
C3170      C3365   1.482       .  S
O3171     Cr3189   1.980       .  S
O3171      C3179   1.260       .  A
O3172     Cr3189   2.005       .  S
O3172      C3173   1.265       .  A
C3173      C3348   1.463       .  S
C3173      O3174   1.259       .  A
O3174     Cr3190   1.974       .  S
O3175      C3176   1.270       .  A
C3176      C3334   1.496       .  S
C3176      O3177   1.259       .  A
O3177     Cr3191   1.977       .  S
O3178     Cr3191   1.997       .  S
C3179      C3575   1.463       .  S
O3180     Cr3189   1.992       .  S
O3180      C3188   1.262       .  A
O3181     Cr3189   1.979       .  S
O3181      C3182   1.259       .  A
C3182      C3306   1.495       .  S
C3182      O3183   1.270       .  A
O3183     Cr3190   2.028       .  S
O3184      C3185   1.260       .  A
C3185      C3320   1.470       .  S
C3185      O3186   1.265       .  A
O3186     Cr3191   2.010       .  S
O3187     Cr3191   1.978       .  S
C3188      C3418   1.456       .  S
Cr3189     O3192   1.770       .  S
Cr3190     O3192   1.772       .  S
C3193      C3194   1.416       .  A
C3193      C3198   1.415       .  A
C3193      C3295   1.477       .  S
C3194      C3474   1.496       .  S
C3195      C3196   1.420       .  A
C3195      C3351   1.485       .  S
C3196      C3197   1.422       .  A
C3196      C3278   1.496       .  S
C3197      C3337   1.489       .  S
C3198      C3463   1.497       .  S
O3199     Cr3217   2.002       .  S
O3199      C3207   1.264       .  A
O3200     Cr3217   1.958       .  S
O3200      C3201   1.258       .  A
C3201      C3407   1.483       .  S
C3201      O3202   1.269       .  A
O3202     Cr3218   2.020       .  S
O3203     Cr3218   2.006       .  S
O3203      C3204   1.264       .  A
C3204      C3390   1.494       .  S
C3204      O3205   1.268       .  A
O3205     Cr3219   2.024       .  S
O3206     Cr3219   1.977       .  S
O3206      C3207   1.259       .  A
C3207      C3264   1.460       .  S
O3208     Cr3217   1.966       .  S
O3208      C3216   1.256       .  A
O3209     Cr3217   2.009       .  S
O3209      C3210   1.264       .  A
C3210      C3547   1.483       .  S
C3210      O3211   1.263       .  A
O3211     Cr3218   2.001       .  S
O3212     Cr3218   2.016       .  S
O3212      C3213   1.270       .  A
C3213      C3558   1.480       .  S
C3213      O3214   1.255       .  A
O3214     Cr3219   1.956       .  S
O3215     Cr3219   2.015       .  S
O3215      C3216   1.266       .  A
C3216      C3281   1.466       .  S
Cr3217     O3220   1.765       .  S
Cr3218     O3220   1.770       .  S
Cr3219     O3220   1.767       .  S
C3221      C3222   1.424       .  A
C3221      C3226   1.423       .  A
C3221      C3250   1.488       .  S
C3222      C3223   1.415       .  A
C3222      C3449   1.490       .  S
C3223      C3224   1.415       .  A
C3223      C3323   1.497       .  S
C3224      C3225   1.412       .  A
C3224      C3267   1.476       .  S
C3225      C3226   1.408       .  A
C3225      C3309   1.499       .  S
C3226      C3435   1.490       .  S
O3227     Cr3245   1.956       .  S
O3227      C3235   1.254       .  A
O3228     Cr3245   2.009       .  S
O3228      C3229   1.266       .  A
C3229      C3516   1.472       .  S
C3229      O3230   1.259       .  A
O3230     Cr3246   1.979       .  S
O3231     Cr3246   2.004       .  S
O3231      C3232   1.267       .  A
C3232      C3502   1.481       .  S
C3232      O3233   1.257       .  A
O3233     Cr3247   1.979       .  S
O3234     Cr3247   1.996       .  S
O3234      C3235   1.263       .  A
C3235      C3292   1.448       .  S
O3236     Cr3245   2.007       .  S
O3236      C3244   1.265       .  A
O3237     Cr3245   1.971       .  S
O3237      C3238   1.258       .  A
C3238      C3362   1.479       .  S
C3238      O3239   1.269       .  A
O3239     Cr3246   2.010       .  S
O3240     Cr3246   1.976       .  S
O3240      C3241   1.260       .  A
C3241      C3379   1.468       .  S
C3241      O3242   1.266       .  A
O3242     Cr3247   2.001       .  S
O3243     Cr3247   1.985       .  S
O3243      C3244   1.259       .  A
C3244      C3253   1.472       .  S
Cr3245     O3248   1.763       .  S
Cr3246     O3248   1.769       .  S
Cr3247     O3248   1.767       .  S
C3249      C3250   1.403       .  A
C3249      C3254   1.403       .  A
C3249      H3256   1.084       .  S
C3250      C3251   1.411       .  A
C3251      C3252   1.399       .  A
C3251      N3258   1.429       .  S
C3252      C3253   1.402       .  A
C3252      H3257   1.084       .  S
C3253      C3254   1.408       .  A
C3254      N3255   1.432       .  S
N3255      O3259   1.260       .  A
N3255      O3260   1.262       .  A
N3258      O3262   1.259       .  A
N3258      O3261   1.261       .  A
C3263      C3264   1.399       .  A
C3263      C3268   1.400       .  A
C3263      H3270   1.084       .  S
C3264      C3265   1.411       .  A
C3265      C3266   1.395       .  A
C3265      N3272   1.436       .  S
C3266      C3267   1.397       .  A
C3266      H3271   1.082       .  S
C3267      C3268   1.413       .  A
C3268      N3269   1.434       .  S
N3269      O3273   1.261       .  A
N3269      O3274   1.261       .  A
N3272      O3276   1.262       .  A
N3272      O3275   1.262       .  A
C3277      C3278   1.404       .  A
C3277      C3282   1.402       .  A
C3277      H3284   1.078       .  S
C3278      C3279   1.417       .  A
C3279      C3280   1.400       .  A
C3279      N3286   1.439       .  S
C3280      C3281   1.395       .  A
C3280      H3285   1.078       .  S
C3281      C3282   1.413       .  A
C3282      N3283   1.442       .  S
N3283      O3287   1.262       .  A
N3283      O3288   1.262       .  A
N3286      O3290   1.263       .  A
N3286      O3289   1.262   1_565  A
C3291      C3292   1.392       .  A
C3291      C3296   1.392       .  A
C3291      H3298   1.078       .  S
C3292      C3293   1.407       .  A
C3293      C3294   1.397       .  A
C3293      N3300   1.437       .  S
C3294      C3295   1.403       .  A
C3294      H3299   1.082       .  S
C3295      C3296   1.414       .  A
C3296      N3297   1.436       .  S
N3300      O3304   1.263       .  A
N3300      O3303   1.262       .  A
C3305      C3306   1.405       .  A
C3305      C3310   1.409       .  A
C3305      H3312   1.083       .  S
C3306      C3307   1.415       .  A
C3307      C3308   1.402       .  A
C3307      N3314   1.427       .  S
C3308      C3309   1.401       .  A
C3308      H3313   1.079       .  S
C3309      C3310   1.421       .  A
C3310      N3311   1.439       .  S
N3311      O3315   1.263       .  A
N3311      O3316   1.261       .  A
N3314      O3318   1.261       .  A
N3314      O3317   1.262       .  A
C3319      C3320   1.399       .  A
C3319      C3324   1.405       .  A
C3319      H3326   1.085       .  S
C3320      C3321   1.403       .  A
C3321      C3322   1.398       .  A
C3321      N3328   1.430       .  S
C3322      C3323   1.406       .  A
C3322      H3327   1.081       .  S
C3323      C3324   1.417       .  A
C3324      N3325   1.426       .  S
N3325      O3329   1.261       .  A
N3325      O3330   1.261       .  A
N3328      O3332   1.262       .  A
N3328      O3331   1.262       .  A
C3333      C3334   1.413       .  A
C3333      C3338   1.406       .  A
C3333      H3340   1.083       .  S
C3334      C3335   1.417       .  A
C3335      C3336   1.401       .  A
C3335      N3342   1.431       .  S
C3336      C3337   1.402       .  A
C3336      H3341   1.084       .  S
C3337      C3338   1.406       .  A
N3339      O3343   1.262       .  A
N3339      O3344   1.261       .  A
N3342      O3346   1.262       .  A
N3342      O3345   1.262       .  A
C3347      C3348   1.398       .  A
C3347      C3352   1.397       .  A
C3347      H3354   1.084       .  S
C3348      C3349   1.407       .  A
C3349      C3350   1.401       .  A
C3349      N3356   1.430       .  S
C3350      C3351   1.404       .  A
C3350      H3355   1.081       .  S
C3351      C3352   1.412       .  A
C3352      N3353   1.431       .  S
N3353      O3357   1.261       .  A
N3353      O3358   1.260       .  A
N3356      O3360   1.262       .  A
N3356      O3359   1.262       .  A
C3361      C3362   1.398       .  A
C3361      C3366   1.401   1_556  A
C3361      H3368   1.083   1_556  S
C3362      C3363   1.411       .  A
C3364      H3369   1.084       .  S
C3365      C3366   1.425   1_556  A
C3366      N3367   1.446       .  S
N3367      O3371   1.263       .  A
N3367      O3372   1.259       .  A
N3370      O3374   1.262       .  A
N3370      O3373   1.262       .  A
C3375      C3380   1.398       .  A
C3375      H3382   1.078       .  S
C3376      C3377   1.415       .  A
C3377      C3378   1.401       .  A
C3377      N3384   1.434       .  S
C3378      C3379   1.399       .  A
C3378      H3383   1.080       .  S
C3380      N3381   1.429       .  S
N3381      O3385   1.262       .  A
N3381      O3386   1.262       .  A
N3384      O3388   1.262       .  A
N3384      O3387   1.260       .  A
C3389      C3390   1.404       .  A
C3389      C3394   1.417       .  A
C3389      H3396   1.084       .  S
C3390      C3391   1.407       .  A
C3391      C3392   1.407       .  A
C3391      N3398   1.432       .  S
C3392      C3393   1.412       .  A
C3392      H3397   1.084       .  S
C3393      C3394   1.425       .  A
C3394      N3395   1.435       .  S
N3395      O3399   1.263       .  A
N3395      O3400   1.258       .  A
N3398      O3402   1.261       .  A
C3403      C3404   1.404       .  A
C3403      C3408   1.397       .  A
C3403      H3410   1.081       .  S
C3404      C3405   1.414       .  A
C3405      C3406   1.399       .  A
C3406      C3407   1.406       .  A
C3407      C3408   1.409       .  A
C3408      N3409   1.429       .  S
N3409      O3413   1.261       .  A
N3409      O3414   1.262       .  A
N3412      O3416   1.260       .  A
N3412      O3415   1.262       .  A
C3417      C3418   1.393       .  A
C3417      C3422   1.395       .  A
C3417      H3424   1.082       .  S
C3419      C3420   1.401       .  A
C3419      N3426   1.437       .  S
C3420      H3425   1.083       .  S
C3421      C3422   1.415       .  A
C3422      N3423   1.433       .  S
N3423      O3427   1.263       .  A
N3423      O3428   1.261       .  A
N3426      O3430   1.262       .  A
N3426      O3429   1.262       .  A
C3431      C3432   1.407       .  A
C3431      C3436   1.398       .  A
C3431      H3438   1.084       .  S
C3432      C3433   1.415       .  A
C3433      C3434   1.403       .  A
C3433      N3440   1.431       .  S
C3434      C3435   1.403       .  A
C3434      H3439   1.084       .  S
C3435      C3436   1.407       .  A
C3436      N3437   1.427       .  S
N3437      O3441   1.260       .  A
N3437      O3442   1.261       .  A
N3440      O3444   1.262       .  A
N3440      O3443   1.262       .  A
C3445      C3446   1.401       .  A
C3445      C3450   1.405       .  A
C3445      H3452   1.084       .  S
C3446      C3447   1.403       .  A
C3447      C3448   1.399       .  A
C3447      N3454   1.429       .  S
C3448      C3449   1.404       .  A
C3448      H3453   1.084       .  S
C3449      C3450   1.415       .  A
C3450      N3451   1.433       .  S
N3451      O3455   1.262       .  A
N3451      O3456   1.261       .  A
N3454      O3458   1.262       .  A
N3454      O3457   1.261       .  A
C3459      C3460   1.399       .  A
C3459      C3464   1.402       .  A
C3459      H3466   1.082       .  S
C3460      C3461   1.410       .  A
C3461      C3462   1.404       .  A
C3461      N3468   1.430       .  S
C3462      C3463   1.404       .  A
C3463      C3464   1.415       .  A
C3464      N3465   1.434       .  S
N3465      O3469   1.262       .  A
N3465      O3470   1.261       .  A
N3468      O3472   1.262       .  A
N3468      O3471   1.262       .  A
C3473      C3474   1.405       .  A
C3473      C3478   1.401       .  A
C3473      H3480   1.084       .  S
C3474      C3475   1.414       .  A
C3475      C3476   1.405       .  A
C3475      N3482   1.429       .  S
C3476      C3477   1.402       .  A
C3476      H3481   1.084       .  S
C3477      C3478   1.407       .  A
C3478      N3479   1.427       .  S
N3479      O3483   1.261       .  A
N3479      O3484   1.262       .  A
N3482      O3486   1.261       .  A
N3482      O3485   1.262       .  A
C3487      C3488   1.411       .  A
C3487      C3492   1.406       .  A
C3487      H3494   1.084       .  S
C3489      C3490   1.408       .  A
C3489      N3496   1.443       .  S
C3490      H3495   1.083       .  S
C3491      C3492   1.403       .  A
C3492      N3493   1.431       .  S
N3493      O3497   1.262       .  A
N3493      O3498   1.262       .  A
N3496      O3500   1.259   1_556  A
N3496      O3499   1.263       .  A
C3501      C3502   1.398       .  A
C3502      C3503   1.415       .  A
C3503      C3504   1.404       .  A
C3503      N3510   1.426       .  S
C3504      C3505   1.398       .  A
C3504      H3509   1.082       .  S
C3506      N3507   1.425       .  S
N3507      O3511   1.261       .  A
N3510      O3514   1.262       .  A
N3510      O3513   1.262       .  A
C3515      C3516   1.395       .  A
C3516      C3517   1.409       .  A
C3517      C3518   1.404       .  A
C3517      N3524   1.428       .  S
C3518      C3519   1.406       .  A
C3518      H3523   1.083       .  S
C3520      N3521   1.429       .  S
N3521      O3525   1.262       .  A
N3521      O3526   1.259       .  A
N3524      O3528   1.262       .  A
N3524      O3527   1.262       .  A
C3529      C3530   1.399       .  A
C3529      C3534   1.399       .  A
C3529      H3536   1.082       .  S
C3531      C3532   1.398       .  A
C3531      N3538   1.433       .  S
C3532      H3537   1.083       .  S
C3533      C3534   1.414       .  A
C3534      N3535   1.439       .  S
N3535      O3539   1.263       .  A
N3535      O3540   1.262       .  A
N3538      O3542   1.260   1_655  A
N3538      O3541   1.262       .  A
C3543      C3544   1.405       .  A
C3543      C3548   1.411       .  A
C3544      C3545   1.415       .  A
C3545      C3546   1.403       .  A
C3545      N3552   1.430       .  S
C3546      C3547   1.397       .  A
C3546      H3551   1.083       .  S
C3547      C3548   1.412       .  A
C3548      N3549   1.428       .  S
N3549      O3553   1.262       .  A
N3549      O3554   1.262       .  A
N3552      O3556   1.261       .  A
N3552      O3555   1.262       .  A
C3557      C3558   1.402       .  A
C3557      C3562   1.397       .  A
C3557      H3564   1.084       .  S
C3558      C3559   1.417       .  A
C3559      C3560   1.393       .  A
C3559      N3566   1.426       .  S
C3560      C3561   1.394       .  A
C3561      C3562   1.410       .  A
C3562      N3563   1.428       .  S
N3563      O3568   1.262       .  A
N3566      O3570   1.262       .  A
N3566      O3569   1.262       .  A
C3571      C3572   1.402       .  A
C3571      C3576   1.402       .  A
C3571      H3578   1.084       .  S
C3573      C3574   1.398       .  A
C3573      N3580   1.432       .  S
C3574      H3579   1.084       .  S
C3575      C3576   1.408       .  A
C3576      N3577   1.429       .  S
N3577      O3581   1.260       .  A
N3577      O3582   1.262       .  A
N3580      O3584   1.261   1_565  A
N3580      O3583   1.263   1_565  A
