geometry optimzed in LAMMPS
_audit_creation_date              2020-11-30 
_audit_creation_method            'lammps2cif' 
_symmetry_space_group_name_H-M    'P1' 
_symmetry_Int_Tables_number       1 
_symmetry_cell_setting            triclinic 
loop_ 
_symmetry_equiv_pos_as_xyz 
  x,y,z 
_cell_length_a                    30.259820602487313 
_cell_length_b                    30.637259518387626 
_cell_length_c                    32.06506282818994 
_cell_angle_alpha                 91.10499509799234 
_cell_angle_beta                  89.26989604998248 
_cell_angle_gamma                 118.93317118678556 
loop_ 
_atom_site_label 
_atom_site_type_symbol 
_atom_site_fract_x 
_atom_site_fract_y 
_atom_site_fract_z 
_atom_site_charge 
C1          C  0.00604023  0.16673952  0.94831851     0.42460
N2          N  0.01021368  0.11259925  0.98765597     0.01350
C3          C  0.10195059  0.95018079  0.93785584    -0.06520
H4          H  0.94298028  0.91435541  0.85087974     0.06840
C5          C  0.85151628  0.88047203  0.01103742    -0.06880
Co6        Co  0.05964270  0.06070477  0.94350952     0.74180
N7          N  0.98353429  0.96990341  0.89865975    -0.26050
Co8        Co  0.99009858  0.93246657  0.95086303     0.74070
C9          C  0.83205591  0.84886047  0.97466692     0.42560
N10         N  0.91384026  0.99281715  0.05596378     0.00970
N11         N  0.91203312  0.89918165  0.96626727     0.01070
N12         N  0.14437764  0.03388415  0.93425701    -0.46900
H13         H  0.03751870  0.14291446  0.89191116     0.06830
N14         N  0.00954757  0.01900832  0.89728994     0.01360
N15         N  0.99822607  0.89705927  0.00267518     0.01100
C16         C  0.00425420  0.84106207  0.03857963     0.42700
N17         N  0.93910148  0.04154739  0.05099004    -0.25510
C18         C  0.15772067  0.12877803  0.98772814    -0.06430
N19         N  0.99904069  0.14950895  0.98772915    -0.46620
N20         N  0.01047057  0.86111819  0.00051590    -0.46840
C21         C  0.17299470  0.15488016  0.02745706     0.42480
N22         N  0.09496388  0.01687652  0.93741846     0.01350
N23         N  0.02389623  0.04023037  0.09251439    -0.25530
N24         N  0.02565131  0.10556029  0.95071318    -0.26020
N25         N  0.99964428  0.99127053  0.09492809     0.00990
H26         H  0.06552222  0.09859756  0.13719910     0.06880
H27         H  0.97218428  0.86182201  0.09714135     0.06910
N28         N  0.06897076  0.96792022  0.93999099    -0.26070
N29         N  0.90011664  0.90872062  0.00371599    -0.25690
N30         N  0.09312161  0.10681313  0.02786917     0.01350
C31         C  0.97855516  0.99803233  0.83572561     0.42750
C32         C  0.90652645  0.05964030  0.05355246    -0.06940
N33         N  0.98317943  0.90256006  0.04028548    -0.25680
H34         H  0.83423746  0.87722087  0.04131135     0.06900
N35         N  0.00812569  0.03690912  0.86055281    -0.46910
H36         H  0.91601593  0.09826551  0.05020427     0.06880
C37         C  0.02870876  0.01590852  0.15669029     0.42580
C38         C  0.02337132  0.13730526  0.92360171    -0.06430
Co39       Co  0.01675353  0.07619683  0.04025083     0.73820
N40         N  0.86484012  0.97609007  0.06199056    -0.46620
C41         C  0.15260379  0.99431561  0.93411376     0.42850
N42         N  0.13088081  0.13963319  0.05100466    -0.46610
Co43       Co  0.94950081  0.94872292  0.04925986     0.73890
C44         C  0.98572470  0.86883448  0.06530575    -0.06940
C45         C  0.96274276  0.95306729  0.86078475    -0.06500
N46         N  0.10814641  0.10066645  0.99061017    -0.26030
N47         N  0.87212476  0.86138177  0.94821231    -0.46790
H48         H  0.09179818  0.91134346  0.94001922     0.06860
C49         C  0.04495164  0.05929786  0.12970057    -0.06920
Cl50       Cl  0.00371217  0.00431807  0.99581317    -0.49920
C51         C  0.85733291  0.01606593  0.06142525     0.42610
H52         H  0.17906949  0.13546187  0.95914406     0.06820
N53         N  0.00105983  0.97537357  0.13256586    -0.46630
C54         C  0.98996086  0.97908462  0.33360906     0.42460
N55         N  0.98750599  0.00656579  0.39577885     0.01350
C56         C  0.12419925  0.98784149  0.55602627    -0.06520
H57         H  0.97081137  0.84574362  0.54435278     0.06840
C58         C  0.85643774  0.91611721  0.56489621    -0.06880
Co59       Co  0.05910091  0.99604894  0.45099152     0.74180
N60         N  0.99985874  0.90869814  0.50562979    -0.26050
Co61       Co  0.00911071  0.95835000  0.55086436     0.74070
C62         C  0.85145954  0.86625558  0.57064092     0.42560
N63         N  0.90133554  0.00700428  0.49242975     0.00970
N64         N  0.93039008  0.92195742  0.56136606     0.01070
N65         N  0.15106326  0.02646690  0.49484159    -0.46900
H66         H  0.04299162  0.95009211  0.35624472     0.06830
N67         N  0.02135108  0.91969279  0.46857458     0.01360
N68         N  0.01781543  0.01048844  0.59684888     0.01100
C69         C  0.01803226  0.03658289  0.65975250     0.42700
N70         N  0.91641136  0.02141951  0.45398231    -0.25510
C71         C  0.14761433  0.10353094  0.43358311    -0.06430
N72         N  0.97308702  0.00550207  0.35684271    -0.46620
N73         N  0.03271435  0.00964507  0.63524098    -0.46840
C74         C  0.15327174  0.15353752  0.43088626     0.42480
N75         N  0.10367883  0.01313903  0.50160929     0.01350
N76         N  0.00283750  0.10921815  0.48617627    -0.25530
N77         N  0.01375476  0.98299700  0.39973746    -0.26020
N78         N  0.98605717  0.09935368  0.52483520     0.00990
H79         H  0.04031050  0.17538361  0.45031068     0.06880
H80         H  0.96770014  0.07016998  0.64100817     0.06910
N81         N  0.08663524  0.99216184  0.53797819    -0.26070
N82         N  0.90615678  0.94761694  0.55891797    -0.25690
N83         N  0.07360868  0.09750445  0.43243474     0.01350
C84         C  0.99847422  0.84215480  0.47874563     0.42750
C85         C  0.87464594  0.00744265  0.43083441    -0.06940
N86         N  0.99269159  0.03547329  0.59436084    -0.25680
H87         H  0.82704762  0.92647816  0.56385145     0.06900
N88         N  0.02332593  0.88052878  0.45169950    -0.46910
H89         H  0.87405010  0.01509103  0.39812403     0.06880
C90         C  0.02179132  0.17897081  0.51879169     0.42580
C91         C  0.01726092  0.96432617  0.36260665    -0.06430
Co92       Co  0.99412906  0.05903637  0.44126777     0.73820
N93         N  0.85238018  0.98124376  0.49642173    -0.46620
C94         C  0.16621899  0.00910308  0.52570854     0.42850
N95         N  0.10528129  0.14650407  0.42995318    -0.46610
Co96       Co  0.94634828  0.02375869  0.54317545     0.73890
C97         C  0.99129459  0.05389015  0.63237213    -0.06940
C98         C  0.98295323  0.86144822  0.51373974    -0.06500
N99         N  0.09774782  0.07186067  0.43581391    -0.26030
N100        N  0.89946765  0.87367308  0.56785987    -0.46790
H101        H  0.12014346  0.96618755  0.58345628     0.06860
C102        C  0.02581308  0.15759194  0.47992900    -0.06920
Cl103      Cl  0.00208785  0.00925058  0.49657983    -0.49920
C104        C  0.83191002  0.97959008  0.45955842     0.42610
H105        H  0.17656048  0.09342818  0.43652590     0.06820
N106        N  0.99455207  0.14084764  0.54540259    -0.46630
C107        C  0.16383896  0.49952672  0.04629582     0.42460
N108        N  0.10924767  0.50483959  0.00761866     0.01350
C109        C  0.94898410  0.59943805  0.06382842    -0.06520
H110        H  0.91337828  0.44721642  0.14691618     0.06840
C111        C  0.87887175  0.35130254  0.99009822    -0.06880
Co112      Co  0.05965751  0.55617996  0.05350109     0.74180
N113        N  0.96893554  0.48292436  0.09896930    -0.26050
Co114      Co  0.93135277  0.49005205  0.04728109     0.74070
C115        C  0.85081389  0.33424439  0.02842805     0.42560
N116        N  0.98798475  0.41235333  0.93962597     0.00970
N117        N  0.89751790  0.41371804  0.03208884     0.01070
N118        N  0.03404803  0.64089633  0.06653538    -0.46900
H119        H  0.14446396  0.53504983  0.10237853     0.06830
N120        N  0.01859400  0.50698279  0.09959672     0.01360
N121        N  0.89640219  0.49876852  0.99576801     0.01100
C122        C  0.84102884  0.50621774  0.95979812     0.42700
N123        N  0.03752551  0.43740022  0.94215261    -0.25510
C124        C  0.12971391  0.65190204  0.01324395    -0.06430
N125        N  0.14544328  0.49229565  0.00712872    -0.46620
N126        N  0.86136001  0.51242273  0.99787471    -0.46840
C127        C  0.16355279  0.66624968  0.97804119     0.42480
N128        N  0.01650793  0.59220737  0.06161303     0.01350
N129        N  0.03684574  0.52257566  0.90402978    -0.25530
N130        N  0.10402689  0.52169022  0.04455182    -0.26020
N131        N  0.98708488  0.49858072  0.90238546     0.00990
H132        H  0.09385742  0.56500935  0.85813421     0.06880
H133        H  0.86025479  0.47317260  0.90113820     0.06910
N134        N  0.96692592  0.56702901  0.05943065    -0.26070
N135        N  0.90547932  0.40023470  0.99465168    -0.25690
N136        N  0.10888117  0.58942671  0.97074382     0.01350
C137        C  0.99838952  0.47933743  0.16196114     0.42750
C138        C  0.05566864  0.40571365  0.93506454    -0.06940
N139        N  0.90079680  0.48306004  0.95820872    -0.25680
H140        H  0.87488865  0.33081608  0.96128369     0.06900
N141        N  0.03737189  0.50589692  0.13614231    -0.46910
H142        H  0.09525305  0.41609524  0.93535180     0.06880
C143        C  0.00943842  0.53309806  0.84255496     0.42580
C144        C  0.13704931  0.51987359  0.07094301    -0.06430
Co145      Co  0.07404651  0.51374985  0.95546929     0.73820
N146        N  0.97064191  0.36408654  0.93208161    -0.46620
C147        C  0.99375171  0.64857888  0.06925462     0.42850
N148        N  0.14905795  0.62584576  0.95269020    -0.46610
Co149      Co  0.94487513  0.44839790  0.94813658     0.73890
C150        C  0.86762841  0.48670539  0.93303787    -0.06940
C151        C  0.95233959  0.46414579  0.13713903    -0.06500
N152        N  0.09927738  0.60374509  0.00716937    -0.26030
N153        N  0.86260748  0.37509121  0.05289888    -0.46790
H154        H  0.90976591  0.59010411  0.06196677     0.06860
C155        C  0.05454161  0.54522935  0.86732319    -0.06920
Cl156      Cl  0.00246071  0.50194203  0.00106306    -0.49920
C157        C  0.01099176  0.35660816  0.92785753     0.42610
H158        H  0.13425563  0.67158721  0.04260565     0.06820
N159        N  0.96938403  0.50316566  0.86621305    -0.46630
C160        C  0.01301165  0.35078853  0.47556517     0.42460
N161        N  0.99928793  0.40616561  0.50394246     0.01350
C162        C  0.92284644  0.56882819  0.43704476    -0.06520
H163        H  0.07434695  0.59114142  0.35788007     0.06840
C164        C  0.16599149  0.62858669  0.51877251    -0.06880
Co165      Co  0.95560548  0.45260447  0.44953359     0.74180
N166        N  0.03747149  0.53740722  0.40504250    -0.26050
Co167      Co  0.03089537  0.57943472  0.45412696     0.74070
C168        C  0.18833079  0.65658453  0.48174909     0.42560
N169        N  0.09364675  0.52308950  0.56870473     0.00970
N170        N  0.10785357  0.61053330  0.47248306     0.01070
N171        N  0.87606590  0.48545483  0.43414009    -0.46900
H172        H  0.98114125  0.35825674  0.41230021     0.06830
N173        N  0.01007007  0.48847636  0.40417582     0.01360
N174        N  0.02191836  0.61858943  0.50204320     0.01100
C175        C  0.01739716  0.67895470  0.53105612     0.42700
N176        N  0.06493356  0.47432884  0.56687413    -0.25510
C177        C  0.85307483  0.39307308  0.48519348    -0.06430
N178        N  0.01626966  0.37512092  0.51104358    -0.46620
N179        N  0.01093319  0.65418017  0.49511836    -0.46840
C180        C  0.83012836  0.36359982  0.52134689     0.42480
N181        N  0.92481237  0.49941677  0.43755314     0.01350
N182        N  0.97976483  0.48525557  0.60026938    -0.25530
N183        N  0.98554734  0.40563762  0.46503326    -0.26020
N184        N  0.00898538  0.53412415  0.60181943     0.00990
H185        H  0.93753603  0.43142721  0.64727089     0.06880
H186        H  0.04790857  0.66782269  0.59342132     0.06910
N187        N  0.95321069  0.54813047  0.43997657    -0.26070
N188        N  0.11705023  0.60296671  0.51099758    -0.25690
N189        N  0.91039108  0.41080736  0.53227611     0.01350
C190        C  0.03712161  0.50695070  0.34077529     0.42750
C191        C  0.09515970  0.45351027  0.57080903    -0.06940
N192        N  0.03559353  0.61784697  0.54081263    -0.25680
H193        H  0.18275424  0.63331484  0.54926284     0.06900
N194        N  0.00872926  0.46918880  0.36671801    -0.46910
H195        H  0.08340383  0.41416864  0.56857257     0.06880
C196        C  0.97976957  0.51511775  0.66423988     0.42580
C197        C  0.99164615  0.37006868  0.44432617    -0.06430
Co198      Co  0.98748905  0.44327198  0.55159366     0.73820
N199        N  0.14233115  0.53712051  0.57278857    -0.46620
C200        C  0.87049805  0.52677148  0.43391441     0.42850
N201        N  0.86821443  0.37489372  0.54924796    -0.46610
Co202      Co  0.06363118  0.56985117  0.55610834     0.73890
C203        C  0.03479522  0.65592306  0.56188236    -0.06940
C204        C  0.05627027  0.55263230  0.36675539    -0.06500
N205        N  0.90178798  0.41892240  0.49382220    -0.26030
N206        N  0.14983247  0.64525567  0.45442021    -0.46790
H207        H  0.93643356  0.60836027  0.43908395     0.06860
C208        C  0.95876484  0.46993753  0.63798548    -0.06920
Cl209      Cl  0.00932407  0.51133640  0.50289406    -0.49920
C210        C  0.14666782  0.49542202  0.57469953     0.42610
H211        H  0.83706996  0.38879885  0.45442441     0.06820
N212        N  0.01054593  0.55309995  0.63952471    -0.46630
C213        C  0.34873459  0.99749663  0.94520871     0.42460
N214        N  0.42958799  0.02674730  0.95209613     0.01350
C215        C  0.53310154  0.87241809  0.99663555    -0.06520
H216        H  0.39121248  0.83801757  0.08324439     0.06840
C217        C  0.50304185  0.03840318  0.14049457    -0.06880
Co218      Co  0.45569000  0.94387425  0.95528600     0.74180
N219        N  0.42674222  0.89603274  0.03826945    -0.26050
Co220      Co  0.50400002  0.93857912  0.05114378     0.74070
C221        C  0.47497610  0.99321498  0.16413940     0.42560
N222        N  0.51552151  0.10295317  0.05023878     0.00970
N223        N  0.49176128  0.97418006  0.10326966     0.01070
N224        N  0.49904087  0.87448295  0.93497148    -0.46900
H225        H  0.33708313  0.91742549  0.93849276     0.06830
N226        N  0.41081847  0.90371769  0.00268071     0.01360
N227        N  0.58175777  0.98198932  0.06020640     0.01100
C228        C  0.66152389  0.00791699  0.06406608     0.42700
N229        N  0.49661595  0.10403969  0.01364881    -0.25510
C230        C  0.50589071  0.96940460  0.87090495    -0.06430
N231        N  0.39377856  0.04006014  0.95006275    -0.46620
N232        N  0.61588598  0.96651315  0.06102938    -0.46840
C233        C  0.52416834  0.01232951  0.84416821     0.42480
N234        N  0.49785584  0.90712429  0.96204081     0.01350
N235        N  0.58619895  0.11250925  0.97258192    -0.25530
N236        N  0.41102238  0.97818613  0.94890950    -0.26020
N237        N  0.60295883  0.10800353  0.00922673     0.00990
H238        H  0.62311806  0.16508209  0.92282328     0.06880
H239        H  0.67969040  0.08990832  0.06657789     0.06910
N240        N  0.51615095  0.90537525  0.99870825    -0.26070
N241        N  0.51200630  0.02315181  0.10375935    -0.25690
N242        N  0.51870128  0.03493090  0.90724858     0.01350
C243        C  0.34576881  0.83872472  0.02497051     0.42750
C244        C  0.47635795  0.13424571  0.01653015    -0.06940
N245        N  0.60222443  0.03099031  0.06208899    -0.25680
H246        H  0.51845402  0.07685188  0.15070212     0.06900
N247        N  0.36392875  0.87210845  0.99474208    -0.46910
H248        H  0.46155054  0.14535537  0.99070596     0.06880
C249        C  0.66787768  0.16740593  0.98173929     0.42580
C250        C  0.36105517  0.95681907  0.94313535    -0.06430
Co251      Co  0.50806631  0.07074287  0.96055646     0.73820
N252        N  0.51113696  0.13324314  0.07807658    -0.46620
C253        C  0.52168719  0.85191114  0.95438239     0.42850
N254        N  0.53215278  0.05216852  0.86877898    -0.46610
Co255      Co  0.55831894  0.06666881  0.05681950     0.73890
C256        C  0.65254739  0.05061036  0.06514012    -0.06940
C257        C  0.38801247  0.85520582  0.05526351    -0.06500
N258        N  0.50119230  0.98638049  0.90821559    -0.26030
N259        N  0.47071440  0.95470885  0.13968469    -0.46790
H260        H  0.54539948  0.85951894  0.02295770     0.06860
C261        C  0.62530196  0.14966506  0.95230133    -0.06920
Cl262      Cl  0.50663340  0.00505951  0.00589598    -0.49920
C263        C  0.48517580  0.15300818  0.05942358     0.42610
H264        H  0.49080900  0.93049865  0.86267222     0.06820
N265        N  0.65064304  0.13965076  0.01562419    -0.46630
C266        C  0.51353666  0.15592711  0.57324362     0.42460
N267        N  0.49475850  0.07769725  0.56901917     0.01350
C268        C  0.63760574  0.98119144  0.48149944    -0.06520
H269        H  0.65254703  0.13726257  0.40639191     0.06840
C270        C  0.45518920  0.00084288  0.37078321    -0.06880
Co271      Co  0.58273799  0.06162642  0.54876083     0.74180
N272        N  0.61295235  0.09497750  0.46098581    -0.26050
Co273      Co  0.57172378  0.01761168  0.44598775     0.74070
C274        C  0.49706584  0.02649242  0.34172789     0.42560
N275        N  0.40415898  0.98999024  0.47754922     0.00970
N276        N  0.52636397  0.02680841  0.40260003     0.01070
N277        N  0.65073396  0.01020816  0.54792918    -0.46900
H278        H  0.59816222  0.18066819  0.56403628     0.06830
N279        N  0.61575733  0.10871472  0.50055270     0.01360
N280        N  0.53149883  0.93947338  0.43455683     0.01100
C281        C  0.51022392  0.86098490  0.42942466     0.42700
N282        N  0.41341885  0.01081991  0.51500777    -0.25510
C283        C  0.56966625  0.01590016  0.63501832    -0.06430
N284        N  0.47525575  0.10823532  0.57342030    -0.46620
N285        N  0.54992637  0.90797630  0.42993746    -0.46840
C286        C  0.52760248  0.99316379  0.66445557     0.42480
N287        N  0.61855949  0.02079551  0.52848163     0.01350
N288        N  0.41205139  0.92168298  0.54391768    -0.25530
N289        N  0.54426979  0.10186071  0.56520177    -0.26020
N290        N  0.41289487  0.90716729  0.50500366     0.00990
H291        H  0.36304758  0.88108199  0.59558443     0.06880
H292        H  0.42667193  0.83741184  0.43916856     0.06910
N293        N  0.61239868  0.00539576  0.48927937    -0.26070
N294        N  0.47687349  0.00178997  0.40713685    -0.25690
N295        N  0.49885919  0.99130095  0.60292168     0.01350
C296        C  0.66612088  0.17698002  0.47110599     0.42750
C297        C  0.37813147  0.02209784  0.52638046    -0.06940
N298        N  0.48209385  0.91579529  0.43864812    -0.25680
H299        H  0.41560409  0.97730815  0.36378889     0.06900
N300        N  0.64655460  0.15623129  0.50757842    -0.46910
H301        H  0.37425003  0.03400491  0.55743005     0.06880
C302        C  0.35704748  0.83991455  0.53256077     0.42580
C303        C  0.55973540  0.15130636  0.56813156    -0.06430
Co304      Co  0.45446797  0.99991230  0.55840999     0.73820
N305        N  0.35903404  0.98044071  0.46449388    -0.46620
C306        C  0.66240275  0.98343884  0.51979210     0.42850
N307        N  0.48499313  0.97835976  0.64203676    -0.46610
Co308      Co  0.44374475  0.95408646  0.45671237     0.73890
C309        C  0.46524037  0.86641171  0.43498478    -0.06940
C310        C  0.64387615  0.13635183  0.43929241    -0.06500
N311        N  0.54830036  0.01491748  0.59849255    -0.26030
N312        N  0.53991777  0.04149807  0.36374863    -0.46790
H313        H  0.64154768  0.96717383  0.45126336     0.06860
C314        C  0.37634262  0.88108878  0.56412747    -0.06920
Cl315      Cl  0.51319000  0.00835004  0.50248039    -0.49920
C316        C  0.34057676  0.99856161  0.49482234     0.42610
H317        H  0.60963621  0.03660714  0.64090182     0.06820
N318        N  0.38154963  0.85998493  0.49744206    -0.46630
C319        C  0.36615055  0.52770868  0.06834742     0.42460
N320        N  0.41968541  0.49998772  0.06500553     0.01350
C321        C  0.65915440  0.62019791  0.98254850    -0.06520
H322        H  0.53049012  0.63025699  0.89418471     0.06840
C323        C  0.45434296  0.43783146  0.87323615    -0.06880
Co324      Co  0.52457597  0.57829879  0.04592435     0.74180
N325        N  0.52651775  0.59979354  0.95500072    -0.26050
Co326      Co  0.55646927  0.55186031  0.94769677     0.74070
C327        C  0.47169251  0.47952768  0.84416727     0.42560
N328        N  0.40928820  0.39780430  0.97989413     0.00970
N329        N  0.50246060  0.50757713  0.90491527     0.01070
N330        N  0.64206020  0.64205911  0.04564789    -0.46900
H331        H  0.43170234  0.60843656  0.05709560     0.06830
N332        N  0.51536390  0.61050037  0.99236527     0.01360
N333        N  0.58749579  0.50517827  0.94145853     0.01100
C334        C  0.64130456  0.47945798  0.93357735     0.42700
N335        N  0.39756120  0.40994088  0.01638451    -0.25510
C336        C  0.55221692  0.56252568  0.13755236    -0.06430
N337        N  0.37141669  0.48640466  0.07020849    -0.46620
N338        N  0.63541782  0.52014311  0.93306656    -0.46840
C339        C  0.53392165  0.51911573  0.16526017     0.42480
N340        N  0.60066514  0.60571583  0.02827936     0.01350
N341        N  0.47995422  0.40386122  0.05414918    -0.25530
N342        N  0.44773489  0.54822295  0.05957868    -0.26020
N343        N  0.49434770  0.39477829  0.01748458     0.00990
H344        H  0.46971429  0.36958578  0.11425984     0.06880
H345        H  0.58216894  0.39881794  0.94982587     0.06910
N346        N  0.61023522  0.59405349  0.99072801    -0.26070
N347        N  0.47627087  0.45892636  0.90975996    -0.25690
N348        N  0.50323651  0.49503679  0.10378729     0.01350
C349        C  0.50624281  0.66024312  0.95159171     0.42750
C350        C  0.34859390  0.38176704  0.02356917    -0.06940
N351        N  0.56124408  0.45703507  0.94859794    -0.25680
H352        H  0.43307747  0.39818926  0.86736785     0.06900
N353        N  0.50335325  0.64660040  0.99169289    -0.46910
H354        H  0.33020143  0.37970733  0.05319099     0.06880
C355        C  0.50121322  0.34429832  0.05887920     0.42580
C356        C  0.41777724  0.56924399  0.06143236    -0.06430
Co357      Co  0.45000789  0.45211207  0.06018641     0.73820
N358        N  0.37006411  0.35933884  0.96238861    -0.46620
C359        C  0.68092940  0.65237320  0.01859743     0.42850
N360        N  0.50351252  0.47935170  0.14169880    -0.46610
Co361      Co  0.48487905  0.42611130  0.96351070     0.73890
C362        C  0.59230678  0.43734289  0.94474521    -0.06940
C363        C  0.52160243  0.62914680  0.92701074    -0.06500
N364        N  0.53112971  0.54372138  0.10007109    -0.26030
N365        N  0.50105607  0.52119117  0.86641834    -0.46790
H366        H  0.67591446  0.62146354  0.95232605     0.06860
C367        C  0.48245230  0.37325755  0.08225336    -0.06920
Cl368      Cl  0.50410836  0.50211306  0.00439308    -0.49920
C369        C  0.33049849  0.34721009  0.98855141     0.42610
H370        H  0.57332685  0.60179486  0.14549920     0.06820
N371        N  0.50658327  0.35883111  0.01884749    -0.46630
C372        C  0.34428865  0.50700235  0.55649410     0.42460
N373        N  0.40243550  0.48560820  0.55250239     0.01350
C374        C  0.66020873  0.64474072  0.51450572    -0.06520
H375        H  0.55919266  0.65872443  0.40900869     0.06840
C376        C  0.48566876  0.46343058  0.37002196    -0.06880
Co377      Co  0.50773616  0.57436747  0.54984315     0.74180
N378        N  0.53312481  0.61246956  0.46305259    -0.26050
Co379      Co  0.57000249  0.56875207  0.46085350     0.74070
C380        C  0.50564927  0.50915090  0.34530960     0.42560
N381        N  0.41926927  0.39865381  0.46465920     0.00970
N382        N  0.52817332  0.52809150  0.40941263     0.01070
N383        N  0.61952716  0.65175276  0.57153527    -0.46900
H384        H  0.40304316  0.59059687  0.55486198     0.06830
N385        N  0.50851811  0.61390021  0.49689342     0.01360
N386        N  0.60666486  0.52508010  0.45930130     0.01100
C387        C  0.66393314  0.50163462  0.45269309     0.42700
N388        N  0.39786272  0.40217231  0.49978085    -0.25510
C389        C  0.52405508  0.55096087  0.64037239    -0.06430
N390        N  0.35280785  0.46760509  0.55550790    -0.46620
N391        N  0.65602484  0.54165077  0.45552598    -0.46840
C392        C  0.50388299  0.50642552  0.66627380     0.42480
N393        N  0.58818054  0.61402530  0.54693243     0.01350
N394        N  0.47699779  0.39913109  0.54838397    -0.25530
N395        N  0.42766366  0.53495546  0.55165793    -0.26020
N396        N  0.50046344  0.39765828  0.51376584     0.00990
H397        H  0.45710789  0.35484657  0.60430929     0.06880
H398        H  0.60107673  0.41854333  0.45463317     0.06910
N399        N  0.61114285  0.61017956  0.51282785    -0.26070
N400        N  0.50187459  0.47884040  0.40909856    -0.25690
N401        N  0.48173132  0.48463090  0.60247322     0.01350
C402        C  0.51101953  0.67272105  0.45860091     0.42750
C403        C  0.34811659  0.37040668  0.49824074    -0.06940
N404        N  0.58040103  0.47585946  0.45908343    -0.25680
H405        H  0.46610083  0.42489835  0.35961107     0.06900
N406        N  0.49567778  0.64962755  0.49578248    -0.46910
H407        H  0.32191054  0.36277958  0.52386442     0.06880
C408        C  0.50358580  0.34207983  0.55252817     0.42580
C409        C  0.39393553  0.55183305  0.55400095    -0.06430
Co410      Co  0.43976730  0.44290525  0.55128605     0.73820
N411        N  0.38556460  0.36357268  0.43916704    -0.46620
C412        C  0.66612427  0.67244275  0.55350485     0.42850
N413        N  0.47854501  0.46693998  0.64034182    -0.46610
Co414      Co  0.50036863  0.43732994  0.46100605     0.73890
C415        C  0.61295489  0.45777114  0.45561708    -0.06940
C416        C  0.53664080  0.64813288  0.43708099    -0.06500
N417        N  0.50716409  0.53389518  0.60184395    -0.26030
N418        N  0.53177202  0.54725221  0.37212964    -0.46790
H419        H  0.68692319  0.65365357  0.48910169     0.06860
C420        C  0.47650049  0.36480018  0.57458506    -0.06920
Cl421      Cl  0.50454458  0.50584893  0.50577020    -0.49920
C422        C  0.33920561  0.34510348  0.45781636     0.42610
H423        H  0.54469469  0.58988762  0.64898159     0.06820
N424        N  0.51615188  0.36397640  0.51481172    -0.46630
C425        C  0.47011081  0.51922877  0.77943862    -0.05780
C426        C  0.47427698  0.48031846  0.79796893     0.00150
C427        C  0.49009382  0.45135918  0.77325661    -0.08420
C428        C  0.50010494  0.46228279  0.73057726    -0.05800
C429        C  0.49686951  0.50190083  0.71223890     0.00140
C430        C  0.48137786  0.53105274  0.73714029    -0.08330
C431        C  0.47676132  0.57469557  0.72027181     0.62050
H432        H  0.45948751  0.54176943  0.79917688     0.12740
H433        H  0.51103351  0.43992410  0.71091855     0.12750
C434        C  0.49794684  0.41014937  0.79132590     0.62280
F435        F  0.45375656  0.59205924  0.74862113    -0.22880
F436        F  0.44795887  0.56060358  0.68439315    -0.20210
F437        F  0.52433190  0.61378202  0.71217859    -0.19890
F438        F  0.45199663  0.37115949  0.80339459    -0.19940
F439        F  0.53012651  0.42812271  0.82516654    -0.20270
F440        F  0.51914091  0.39137276  0.76250470    -0.22940
C441        C  0.53075907  0.55786115  0.23346430    -0.05780
C442        C  0.53038046  0.51749989  0.21166015     0.00150
C443        C  0.52186930  0.47449666  0.23417225    -0.08420
C444        C  0.51365205  0.47355188  0.27744350    -0.05800
C445        C  0.51328075  0.51348275  0.29922770     0.00140
C446        C  0.52196258  0.55659996  0.27686633    -0.08330
C447        C  0.52089600  0.60080736  0.29818347     0.62050
H448        H  0.53672415  0.59017187  0.21603930     0.12740
H449        H  0.50740015  0.44101719  0.29462122     0.12750
C450        C  0.52053548  0.42894619  0.21311449     0.62280
F451        F  0.52136744  0.63440530  0.26966833    -0.22880
F452        F  0.56285764  0.62584686  0.32332030    -0.20210
F453        F  0.47751219  0.58455126  0.32206152    -0.19890
F454        F  0.56094570  0.44332034  0.18597456    -0.19940
F455        F  0.47575528  0.40248165  0.19155906    -0.20270
F456        F  0.52330468  0.39709575  0.24175815    -0.22940
C457        C  0.51918250  0.75436656  0.48271004    -0.05780
C458        C  0.51244773  0.72148687  0.44905640     0.00150
C459        C  0.50464638  0.73506074  0.40864379    -0.08420
C460        C  0.50573414  0.78148152  0.40344493    -0.05800
C461        C  0.51318336  0.81432704  0.43706337     0.00140
C462        C  0.51898983  0.80005165  0.47758424    -0.08330
C463        C  0.52366144  0.83238779  0.51551978     0.62050
H464        H  0.52429525  0.74374702  0.51354185     0.12740
H465        H  0.50020098  0.79236964  0.37284091     0.12750
C466        C  0.49337951  0.70041983  0.37114250     0.62280
F467        F  0.52886237  0.81190494  0.55202007    -0.22880
F468        F  0.48097981  0.83778564  0.51931355    -0.20210
F469        F  0.56550671  0.87877611  0.51131494    -0.19890
F470        F  0.45692266  0.65256672  0.38115901    -0.19940
F471        F  0.53696949  0.70020821  0.35830412    -0.20270
F472        F  0.47552999  0.71549216  0.33788163    -0.22940
C473        C  0.46147909  0.24912471  0.55969689    -0.05780
C474        C  0.50564323  0.29527157  0.56255759     0.00150
C475        C  0.55138531  0.29571493  0.57210802    -0.08420
C476        C  0.55207060  0.24990648  0.57594402    -0.05800
C477        C  0.50822868  0.20300960  0.57129299     0.00140
C478        C  0.46157472  0.20306909  0.56401011    -0.08330
C479        C  0.41186302  0.15518892  0.55907247     0.62050
H480        H  0.42677992  0.24953677  0.55268529     0.12740
H481        H  0.58741290  0.25071643  0.58254998     0.12750
C482        C  0.59904896  0.34493429  0.57918551     0.62280
F483        F  0.37174273  0.16407447  0.55270408    -0.22880
F484        F  0.40135728  0.12707365  0.59471570    -0.20210
F485        F  0.41483677  0.12861556  0.52486928    -0.19890
F486        F  0.59053339  0.37201118  0.61022330    -0.19940
F487        F  0.61257734  0.37208658  0.54285411    -0.20270
F488        F  0.63891536  0.33812471  0.59149196    -0.22940
C489        C  0.49001495  0.96268265  0.73304626    -0.05780
C490        C  0.52841699  0.00120385  0.71037025     0.00150
C491        C  0.56042824  0.04723381  0.73138836    -0.08420
C492        C  0.55748837  0.04956427  0.77524029    -0.05800
C493        C  0.52048066  0.00991856  0.79793471     0.00140
C494        C  0.48297948  0.96766898  0.77580379    -0.08330
C495        C  0.43304940  0.92911408  0.79453391     0.62050
H496        H  0.46332291  0.92906427  0.71657282     0.12740
H497        H  0.58447767  0.08251504  0.79218059     0.12750
C498        C  0.59582738  0.09475213  0.70871305     0.62280
F499        F  0.39446950  0.91597898  0.76602181    -0.22880
F500        F  0.41991318  0.94723722  0.82964580    -0.20210
F501        F  0.43571810  0.88665193  0.80415347    -0.19890
F502        F  0.57217554  0.10076468  0.67436288    -0.19940
F503        F  0.63902414  0.09331117  0.69653297    -0.20270
F504        F  0.61026971  0.13645815  0.73417290    -0.22940
C505        C  0.45406806  0.02105734  0.27557678    -0.05780
C506        C  0.49243019  0.01664164  0.29605183     0.00150
C507        C  0.52109679  0.99836208  0.27342671    -0.08420
C508        C  0.51152446  0.98749003  0.23056446    -0.05800
C509        C  0.47472638  0.99415916  0.21003988     0.00140
C510        C  0.44499988  0.01049714  0.23270592    -0.08330
C511        C  0.40371332  0.01637787  0.21143387     0.62050
H512        H  0.43163712  0.03366261  0.29343223     0.12740
H513        H  0.53427205  0.97570428  0.21219091     0.12750
C514        C  0.56116904  0.98965555  0.29391358     0.62280
F515        F  0.37607695  0.02833995  0.23963716    -0.22880
F516        F  0.37097251  0.97210558  0.19146490    -0.20210
F517        F  0.42464741  0.05388344  0.18239016    -0.20130
F518        F  0.54061152  0.95855241  0.32765442    -0.19940
F519        F  0.60093899  0.03469827  0.30699284    -0.20270
F520        F  0.58045862  0.96735826  0.26671564    -0.22940
C521        C  0.55412730  0.79663290  0.92939855    -0.05780
C522        C  0.51282275  0.80148421  0.94362887     0.00150
C523        C  0.46677222  0.75848104  0.95363146    -0.08420
C524        C  0.46500787  0.71185122  0.95163397    -0.05800
C525        C  0.50746231  0.70724647  0.94036651     0.00140
C526        C  0.55240500  0.74992452  0.92749024    -0.08330
C527        C  0.59916233  0.74696504  0.91393968     0.62050
H528        H  0.58871799  0.83024631  0.92192779     0.12740
H529        H  0.43119354  0.67871927  0.96130626     0.12750
C530        C  0.42057942  0.76193061  0.96845578     0.62280
F531        F  0.63927282  0.79352596  0.90522325    -0.22880
F532        F  0.58874568  0.71794072  0.87811280    -0.20210
F533        F  0.61413237  0.72645860  0.94515984    -0.19890
F534        F  0.40666303  0.78482274  0.93855183    -0.19940
F535        F  0.43119676  0.78921960  0.00529235    -0.20270
F536        F  0.37966456  0.71535653  0.97563633    -0.22940
C537        C  0.44955270  0.25440855  0.07278436    -0.05780
C538        C  0.49750394  0.29654847  0.07070976     0.00150
C539        C  0.54114397  0.29146895  0.07442934    -0.08420
C540        C  0.53568991  0.24320557  0.07506224    -0.05800
C541        C  0.48786055  0.20079435  0.07181857     0.00140
C542        C  0.44399893  0.20612089  0.07328734    -0.08330
C543        C  0.39181509  0.16082289  0.07485625     0.62050
H544        H  0.41656286  0.25941281  0.07132059     0.12740
H545        H  0.56878894  0.23834360  0.07488479     0.12750
C546        C  0.59293422  0.33725515  0.07631076     0.62280
F547        F  0.35455459  0.17417858  0.08112345    -0.22880
F548        F  0.38949742  0.13078270  0.10741842    -0.20210
F549        F  0.38180904  0.13384360  0.03788098    -0.19890
F550        F  0.59327253  0.36985324  0.10693582    -0.19940
F551        F  0.60439482  0.36091333  0.03827173    -0.20270
F552        F  0.63011989  0.32527094  0.08582263    -0.22940
C553        C  0.79657936  0.27668069  0.49771578    -0.05780
C554        C  0.78632654  0.31401978  0.51290637     0.00150
C555        C  0.73811272  0.30914186  0.50566616    -0.08420
C556        C  0.70075684  0.26532568  0.48618766    -0.05800
C557        C  0.71056690  0.22712236  0.47203803     0.00140
C558        C  0.75997549  0.23375494  0.47678286    -0.08330
C559        C  0.77670885  0.19709736  0.46126833     0.62050
H560        H  0.83453997  0.28227351  0.50063085     0.12740
H561        H  0.66255202  0.25938815  0.48364848     0.12750
C562        C  0.72626895  0.35013268  0.51893933     0.62280
F563        F  0.81520615  0.22024374  0.43252717    -0.22880
F564        F  0.73922498  0.15494852  0.44235753    -0.20210
F565        F  0.79447168  0.18266467  0.49464436    -0.19890
F566        F  0.75583500  0.39292076  0.49672931    -0.19940
F567        F  0.73600403  0.36038528  0.56104092    -0.20270
F568        F  0.67622430  0.33649465  0.51190869    -0.22940
C569        C  0.22627769  0.74636410  0.49746619    -0.05780
C570        C  0.23363144  0.70544897  0.48802785     0.00150
C571        C  0.28008731  0.70776546  0.49839658    -0.08420
C572        C  0.31762398  0.75096260  0.51820682    -0.05800
C573        C  0.31030689  0.79179728  0.52820979     0.00140
C574        C  0.26409544  0.78976451  0.51708351    -0.08330
C575        C  0.25492813  0.83336097  0.52602945     0.62050
H576        H  0.18974131  0.74313128  0.49101811     0.12740
H577        H  0.35412833  0.75406544  0.52459832     0.12750
C578        C  0.28985367  0.66451221  0.48838007     0.62280
F579        F  0.20717480  0.82355552  0.51403507    -0.22880
F580        F  0.28980264  0.87480583  0.50473226    -0.20210
F581        F  0.25948007  0.84326716  0.56840732    -0.19890
F582        F  0.27843429  0.65020098  0.44701628    -0.19940
F583        F  0.26019208  0.62457480  0.51349350    -0.20270
F584        F  0.33983148  0.67716368  0.49478590    -0.22940
C585        C  0.77670249  0.47817354  0.42529706    -0.05780
C586        C  0.81876134  0.52387391  0.43704004     0.00150
C587        C  0.80878904  0.56193238  0.45336119    -0.08420
C588        C  0.75803821  0.55207215  0.45796705    -0.05800
C589        C  0.71601393  0.50605664  0.44694350     0.00140
C590        C  0.72598914  0.46844407  0.42951368    -0.08330
C591        C  0.68428728  0.41792094  0.41498643     0.62050
H592        H  0.78390697  0.44912098  0.41288443     0.12740
H593        H  0.75070014  0.58092142  0.47066577     0.12750
C594        C  0.85064011  0.61286272  0.46650186     0.62280
F595        F  0.70299217  0.39099931  0.39298158    -0.22880
F596        F  0.65164874  0.42381861  0.38880340    -0.20210
F597        F  0.65858920  0.39016174  0.44920767    -0.19890
F598        F  0.87883503  0.63745588  0.43194932    -0.19940
F599        F  0.88075764  0.60760356  0.49582211    -0.20270
F600        F  0.83213529  0.64241452  0.48419729    -0.22940
C601        C  0.22275746  0.49616711  0.60460815    -0.05780
C602        C  0.19570966  0.49520199  0.56901939     0.00150
C603        C  0.21747942  0.49750646  0.52905281    -0.08420
C604        C  0.26627080  0.50199490  0.52620566    -0.05800
C605        C  0.29345603  0.50338810  0.56184385     0.00140
C606        C  0.27108379  0.49961835  0.60167000    -0.08330
C607        C  0.29849023  0.49936949  0.64085001     0.62050
H608        H  0.20574877  0.49445346  0.63487249     0.12740
H609        H  0.28351332  0.50407247  0.49598416     0.12750
C610        C  0.18890704  0.49454054  0.48957771     0.62280
F611        F  0.27073322  0.49578777  0.67651665    -0.22880
F612        F  0.34412726  0.54295157  0.64362090    -0.20210
F613        F  0.30731455  0.45908719  0.63947033    -0.19890
F614        F  0.17776283  0.53325990  0.48901666    -0.19940
F615        F  0.14440385  0.44970123  0.48812630    -0.20270
F616        F  0.21661615  0.49747797  0.45402541    -0.22940
C617        C  0.02479486  0.50690764  0.77295312    -0.05780
C618        C  0.00568418  0.53298941  0.79663564     0.00150
C619        C  0.97881852  0.55368543  0.77669163    -0.08420
C620        C  0.97040090  0.54610623  0.73342702    -0.05800
C621        C  0.98749930  0.51812717  0.70993010     0.00140
C622        C  0.01641972  0.49914768  0.72967139    -0.08330
C623        C  0.03890997  0.47128100  0.70555093     0.62050
H624        H  0.04502401  0.49119480  0.78899220     0.12740
H625        H  0.95015220  0.56189418  0.71752686     0.12750
C626        C  0.96032887  0.58466769  0.80105851     0.62280
F627        F  0.07085585  0.46219943  0.73007139    -0.22880
F628        F  0.06662836  0.49898571  0.67188663    -0.20210
F629        F  0.00081663  0.42576820  0.69159253    -0.19890
F630        F  0.00052284  0.62333181  0.82163250    -0.19940
F631        F  0.92436458  0.55529650  0.82993743    -0.20270
F632        F  0.93893206  0.60506477  0.77530268    -0.22940
C633        C  0.04664020  0.52930216  0.22280075    -0.05780
C634        C  0.00540231  0.48490110  0.20800343     0.00150
C635        C  0.97599368  0.44735181  0.23678228    -0.08420
C636        C  0.98846912  0.45639692  0.27942952    -0.05800
C637        C  0.02958066  0.50119886  0.29446688     0.00140
C638        C  0.06019549  0.53790119  0.26510755    -0.08330
C639        C  0.10708261  0.58628770  0.27679325     0.62050
H640        H  0.06873584  0.55813798  0.20064074     0.12740
H641        H  0.96507430  0.42815995  0.30153017     0.12750
C642        C  0.93202627  0.39776998  0.22305640     0.62280
F643        F  0.13902075  0.60624762  0.24285653    -0.22880
F644        F  0.13434011  0.57843524  0.30722099    -0.20210
F645        F  0.09315775  0.62097672  0.29047875    -0.19890
F646        F  0.94640516  0.37766403  0.19001986    -0.19940
F647        F  0.89215211  0.40466959  0.21121191    -0.20270
F648        F  0.91519129  0.36344266  0.25489111    -0.22940
C649        C  0.75930811  0.29579943  0.02081438    -0.05780
C650        C  0.80167728  0.28948960  0.02576112     0.00150
C651        C  0.79968689  0.24414724  0.01363765    -0.08420
C652        C  0.75732421  0.20874223  0.99171922    -0.05800
C653        C  0.71450263  0.21464322  0.98635159     0.00140
C654        C  0.71455787  0.25797718  0.00327395    -0.08330
C655        C  0.66856345  0.26527931  0.00772681     0.62050
H656        H  0.76131492  0.33083442  0.03049998     0.12740
H657        H  0.75543140  0.17381465  0.98209079     0.12750
C658        C  0.84075398  0.23224442  0.02689292     0.62280
F659        F  0.65899505  0.26700799  0.04975272    -0.22880
F660        F  0.62545854  0.22811929  0.98955383    -0.20210
F661        F  0.67849515  0.30997386  0.99005983    -0.19890
F662        F  0.83022520  0.18471236  0.01431628    -0.19940
F663        F  0.84416837  0.23508145  0.06992821    -0.20270
F664        F  0.88710171  0.26571579  0.01045232    -0.22940
C665        C  0.27886128  0.78857379  0.97454466    -0.05780
C666        C  0.30136739  0.79001055  0.01367452     0.00150
C667        C  0.28172056  0.74591367  0.03724286    -0.08420
C668        C  0.23948001  0.70327902  0.02140311    -0.05800
C669        C  0.21575648  0.70429811  0.98417661     0.00140
C670        C  0.23661198  0.74648731  0.95945725    -0.08330
C671        C  0.21264365  0.74744262  0.91833079     0.62050
H672        H  0.29340947  0.82129868  0.95543327     0.12740
H673        H  0.22238448  0.66932629  0.03931916     0.12750
C674        C  0.30308827  0.74353131  0.07907503     0.62280
F675        F  0.24069343  0.79178471  0.89751423    -0.22880
F676        F  0.16486202  0.74146100  0.92551713    -0.20210
F677        F  0.20893907  0.70901790  0.89267018    -0.19890
F678        F  0.30376295  0.77990269  0.10568430    -0.19940
F679        F  0.35137437  0.75032093  0.07367420    -0.20270
F680        F  0.27439716  0.69791416  0.09794512    -0.22940
C681        C  0.76473650  0.47902822  0.91584039    -0.05780
C682        C  0.79063615  0.50224268  0.95294442     0.00150
C683        C  0.76644221  0.51827163  0.98345060    -0.08420
C684        C  0.71681942  0.50823050  0.97607873    -0.05800
C685        C  0.69111227  0.48383026  0.93975419     0.00140
C686        C  0.71522476  0.46983394  0.90867589    -0.08330
C687        C  0.68868462  0.44614289  0.86800939     0.62050
H688        H  0.78309345  0.46756714  0.89238961     0.12740
H689        H  0.69731722  0.51953549  0.99875344     0.12750
C690        C  0.79191764  0.54625209  0.02355155     0.62280
F691        F  0.71883184  0.43579270  0.84129453    -0.22880
F692        F  0.67599351  0.47819181  0.84809737    -0.20210
F693        F  0.64519159  0.40197578  0.87609606    -0.19890
F694        F  0.83798491  0.58712714  0.01426467    -0.19940
F695        F  0.79853091  0.51499436  0.05024756    -0.20270
F696        F  0.76338904  0.56362633  0.04495433    -0.22940
C697        C  0.27290540  0.47581990  0.06800123    -0.05780
C698        C  0.31489495  0.52431860  0.06609552     0.00150
C699        C  0.30543391  0.56532243  0.06139963    -0.08420
C700        C  0.25521142  0.55550721  0.05591589    -0.05800
C701        C  0.21459765  0.50693738  0.05553458     0.00140
C702        C  0.22304068  0.46658962  0.06296221    -0.08330
C703        C  0.17921871  0.41403891  0.06572756     0.62050
H704        H  0.27914204  0.44435433  0.07268521     0.12740
H705        H  0.24712644  0.58576891  0.05069903     0.12750
C706        C  0.34685064  0.61915005  0.06153117     0.62280
F707        F  0.19514555  0.38073136  0.07734819    -0.22880
F708        F  0.15558188  0.39907952  0.02741971    -0.20210
F709        F  0.14480919  0.41256602  0.09525896    -0.19890
F710        F  0.37573830  0.62813044  0.02579409    -0.19940
F711        F  0.37625747  0.62921764  0.09680748    -0.20270
F712        F  0.32759882  0.65188921  0.06200817    -0.22940
C713        C  0.75665668  0.81386515  0.56205672    -0.05780
C714        C  0.80318860  0.81586350  0.57128994     0.00150
C715        C  0.80185361  0.76970749  0.58023858    -0.08420
C716        C  0.75621266  0.72413464  0.57501720    -0.05800
C717        C  0.71070822  0.72242580  0.56400752     0.00140
C718        C  0.71054788  0.76823379  0.55888599    -0.08330
C719        C  0.66186591  0.76875970  0.54920609     0.62050
H720        H  0.75645031  0.84841857  0.55647023     0.12740
H721        H  0.75580565  0.68892445  0.57908281     0.12750
C722        C  0.84797767  0.76769516  0.59542031     0.62280
F723        F  0.66930611  0.81679372  0.54559448    -0.22880
F724        F  0.62738202  0.74604847  0.58102245    -0.20210
F725        F  0.64194847  0.74332118  0.51211066    -0.19890
F726        F  0.86900993  0.80001363  0.62902994    -0.19940
F727        F  0.88268934  0.78079480  0.56349676    -0.20270
F728        F  0.83637197  0.72038466  0.60817306    -0.22940
C729        C  0.21081111  0.24436450  0.41422513    -0.05780
C730        C  0.20090523  0.20277265  0.43869911     0.00150
C731        C  0.23689851  0.20940557  0.47008528    -0.08420
C732        C  0.28254358  0.25518979  0.47303536    -0.05800
C733        C  0.29293518  0.29607784  0.44793198     0.00140
C734        C  0.25554717  0.29116068  0.41911667    -0.08330
C735        C  0.26239857  0.33603552  0.39496874     0.62050
H736        H  0.18293706  0.24007085  0.39133812     0.12740
H737        H  0.31034345  0.25984697  0.49617352     0.12750
C738        C  0.22737861  0.17007806  0.50241248     0.62280
F739        F  0.22203382  0.32444422  0.36881442    -0.22880
F740        F  0.30585170  0.35396180  0.37102248    -0.20210
F741        F  0.26653110  0.37309005  0.42258694    -0.19890
F742        F  0.24103609  0.13615189  0.48629763    -0.19940
F743        F  0.17720019  0.14570266  0.51457263    -0.20270
F744        F  0.25564190  0.19135703  0.53803727    -0.22940
C745        C  0.79019571  0.02564274  0.48013159    -0.05780
C746        C  0.78469867  0.98058382  0.46350876     0.00150
C747        C  0.74076465  0.93539301  0.47238083    -0.08420
C748        C  0.70366996  0.93666644  0.49816194    -0.05800
C749        C  0.70944904  0.98177356  0.51513204     0.00140
C750        C  0.75434781  0.02656912  0.50764152    -0.08330
C751        C  0.76401333  0.07507235  0.52852155     0.62050
H752        H  0.82549633  0.05951325  0.47489485     0.12740
H753        H  0.66820218  0.90285004  0.50300205     0.12750
C754        C  0.73386938  0.88619465  0.45466833     0.62280
F755        F  0.81314064  0.11236885  0.52218024    -0.22880
F756        F  0.75633385  0.06830383  0.57105363    -0.20210
F757        F  0.73148858  0.09030117  0.51274858    -0.19890
F758        F  0.76858528  0.87488686  0.47216255    -0.19940
F759        F  0.74112446  0.88988752  0.41194007    -0.20270
F760        F  0.68592850  0.84729199  0.46243198    -0.22940
C761        C  0.26001666  0.98172960  0.46845208    -0.05780
C762        C  0.28713704  0.98080148  0.50246054     0.00150
C763        C  0.26575413  0.97371726  0.54321512    -0.08420
C764        C  0.22461728  0.98165573  0.54940286    -0.05800
C765        C  0.20213420  0.99126984  0.51585813     0.00140
C766        C  0.21628826  0.98543093  0.47390022    -0.08330
C767        C  0.19099356  0.98835826  0.43391801     0.62050
H768        H  0.27613725  0.98476397  0.43753444     0.12740
H769        H  0.21102776  0.98181442  0.58084243     0.12750
C770        C  0.28381017  0.95783572  0.58103312     0.62280
F771        F  0.20309571  0.96690316  0.40034268    -0.22880
F772        F  0.20788448  0.03769713  0.42466837    -0.20210
F773        F  0.13898559  0.96327749  0.43714760    -0.19890
F774        F  0.30516016  0.99701340  0.60949361    -0.19940
F775        F  0.31823673  0.94193573  0.57096346    -0.20270
F776        F  0.24289639  0.91849591  0.59987005    -0.22940
C777        C  0.96738135  0.76179028  0.51131143    -0.05780
C778        C  0.00577229  0.79866415  0.48673972     0.00150
C779        C  0.05294390  0.79959688  0.48346978    -0.08420
C780        C  0.05887879  0.76255111  0.50398182    -0.05800
C781        C  0.02082793  0.72772948  0.52997772     0.00140
C782        C  0.97623611  0.73013629  0.53629198    -0.08330
C783        C  0.93867774  0.70214072  0.57064042     0.62050
H784        H  0.93143154  0.76110383  0.51429141     0.12740
H785        H  0.09257857  0.75919626  0.49878401     0.12750
C786        C  0.09703802  0.83990734  0.46007772     0.62280
F787        F  0.89095654  0.67387309  0.55426825    -0.22880
F788        F  0.93768331  0.73645363  0.59872335    -0.20210
F789        F  0.95123435  0.67118410  0.59238348    -0.19890
F790        F  0.11251477  0.88480075  0.48082971    -0.19940
F791        F  0.08284915  0.84268901  0.41980163    -0.20270
F792        F  0.13770971  0.83101751  0.45773526    -0.22940
C793        C  0.97762833  0.22702835  0.52016152    -0.05780
C794        C  0.02385474  0.22742003  0.51711864     0.00150
C795        C  0.06511118  0.26717098  0.49639422    -0.08420
C796        C  0.05761178  0.30367978  0.47726555    -0.05800
C797        C  0.01111469  0.30275252  0.47951453     0.00140
C798        C  0.97066493  0.26445533  0.50194961    -0.08330
C799        C  0.92033873  0.26340720  0.50681850     0.62050
H800        H  0.94619455  0.19566493  0.53493265     0.12740
H801        H  0.08933341  0.33492067  0.46249716     0.12750
C802        C  0.11732587  0.27190666  0.49242536     0.62280
F803        F  0.88433072  0.21926877  0.52405586    -0.22880
F804        F  0.90388105  0.26817824  0.46808356    -0.20210
F805        F  0.92490403  0.30194539  0.53268566    -0.19890
F806        F  0.12692403  0.26632044  0.45093680    -0.19940
F807        F  0.12258027  0.23704118  0.51552182    -0.20270
F808        F  0.15309491  0.31876587  0.50628295    -0.22940
C809        C  0.03340198  0.01494803  0.77404830    -0.05780
C810        C  0.98538718  0.00229578  0.79005000     0.00150
C811        C  0.94824027  0.00156032  0.76350318    -0.08420
C812        C  0.96046678  0.01375972  0.72124818    -0.05800
C813        C  0.00872239  0.02678619  0.70509271     0.00140
C814        C  0.04581226  0.02704025  0.73185608    -0.08330
C815        C  0.09865876  0.04117408  0.71634503     0.62050
H816        H  0.06148708  0.01597588  0.79526038     0.12740
H817        H  0.93204061  0.01264573  0.70046000     0.12750
C818        C  0.89636325  0.98872699  0.78024347     0.62280
F819        F  0.13070015  0.04634553  0.74877673    -0.22880
F820        F  0.11901426  0.08612450  0.69579721    -0.20210
F821        F  0.09685877  0.00459040  0.68940112    -0.19890
F822        F  0.90079881  0.02300315  0.81088521    -0.19940
F823        F  0.87398494  0.94159387  0.79716406    -0.20270
F824        F  0.86509703  0.98920558  0.74931473    -0.22940
C825        C  0.99537294  0.02638872  0.27019957    -0.05780
C826        C  0.99919569  0.98655628  0.28776477     0.00150
C827        C  0.01403507  0.95785353  0.26162055    -0.08420
C828        C  0.02804694  0.97268239  0.22015682    -0.05800
C829        C  0.02414106  0.01232975  0.20274533     0.00140
C830        C  0.00632123  0.03920306  0.22799172    -0.08330
C831        C  0.99719341  0.08019636  0.21106649     0.62050
H832        H  0.98375470  0.04803424  0.28996639     0.12740
H833        H  0.04034376  0.95159496  0.20020938     0.12750
C834        C  0.01394070  0.91063404  0.27535975     0.62280
F835        F  0.97338927  0.09601853  0.23999705    -0.22880
F836        F  0.96658292  0.06310424  0.17624078    -0.20210
F837        F  0.04278441  0.12105834  0.20104437    -0.19890
F838        F  0.97642373  0.88534248  0.30449933    -0.19940
F839        F  0.06060494  0.92264062  0.29165312    -0.20270
F840        F  0.00484407  0.87821421  0.24185268    -0.22940
C841        C  0.71697214  0.74302278  0.02308164    -0.05780
C842        C  0.72430597  0.70252538  0.01241094     0.00150
C843        C  0.76594206  0.71035219  0.98643919    -0.08420
C844        C  0.79684368  0.75793166  0.97023691    -0.05800
C845        C  0.78905998  0.79833174  0.98046302     0.00140
C846        C  0.74740803  0.79039801  0.00662840    -0.08330
C847        C  0.73287719  0.83013865  0.01847377     0.62050
H848        H  0.68482972  0.73703945  0.04229902     0.12740
H849        H  0.82940003  0.76412729  0.95150937     0.12750
C850        C  0.78025169  0.67040056  0.97528801     0.62280
F851        F  0.68171292  0.81160767  0.01202857    -0.22880
F852        F  0.75808484  0.87287753  0.99521210    -0.20210
F853        F  0.74278036  0.84233299  0.06038206    -0.19890
F854        F  0.77268497  0.65930840  0.93308740    -0.19940
F855        F  0.75286645  0.62719329  0.99738568    -0.20270
F856        F  0.83076630  0.68789706  0.98405839    -0.22940
C857        C  0.24536755  0.29209206  0.01256525    -0.05780
C858        C  0.29051384  0.29626722  0.99638661     0.00150
C859        C  0.29982588  0.25512938  0.99826138    -0.08420
C860        C  0.26137952  0.21003478  0.01346793    -0.05800
C861        C  0.21543131  0.20543315  0.02769623     0.00140
C862        C  0.20783265  0.24748081  0.02926630    -0.08330
C863        C  0.16066131  0.24554266  0.04831398     0.62050
H864        H  0.24036289  0.32482130  0.01290223     0.12740
H865        H  0.26586082  0.17700943  0.01268656     0.12750
C866        C  0.34982542  0.25833238  0.98529428     0.62280
F867        F  0.16352444  0.29184392  0.04957911    -0.22880
F868        F  0.15475216  0.22891184  0.08885157    -0.20210
F869        F  0.11851397  0.21410285  0.02530586    -0.19890
F870        F  0.38861846  0.29516987  0.00842351    -0.19940
F871        F  0.35845219  0.26888749  0.94330857    -0.20270
F872        F  0.35045059  0.21406985  0.99179500    -0.22940
C873        C  0.79059536  0.02793880  0.02750314    -0.05780
C874        C  0.80692803  0.01333807  0.06274575     0.00150
C875        C  0.77481421  0.99580485  0.09810313    -0.08420
C876        C  0.72728225  0.99394121  0.09713704    -0.05800
C877        C  0.71110493  0.00888791  0.06203321     0.00140
C878        C  0.74270405  0.02524685  0.02625058    -0.08330
C879        C  0.72509464  0.03805764  0.98646749     0.62050
H880        H  0.81543693  0.04070779  0.00061402     0.12740
H881        H  0.70249962  0.98129009  0.12405779     0.12750
C882        C  0.79154365  0.98069889  0.13713024     0.62280
F883        F  0.75975130  0.04921505  0.95433461    -0.22880
F884        F  0.71815759  0.07895442  0.99333875    -0.20210
F885        F  0.67992755  0.99792479  0.97377975    -0.19890
F886        F  0.83692813  0.01971051  0.15083301    -0.19940
F887        F  0.79763291  0.93953783  0.12851317    -0.20270
F888        F  0.75661154  0.96859004  0.16914463    -0.22940
C889        C  0.20549113  0.95488504  0.95128062    -0.05780
C890        C  0.20380469  0.99699093  0.93681363     0.00150
C891        C  0.25061689  0.03972091  0.92643314    -0.08420
C892        C  0.29611050  0.03741335  0.92939115    -0.05800
C893        C  0.29762677  0.99500396  0.94341675     0.00140
C894        C  0.25106113  0.95327504  0.95605422    -0.08330
C895        C  0.24759581  0.90670267  0.97513364     0.62050
H896        H  0.17032206  0.92266747  0.95965153     0.12740
H897        H  0.33153514  0.06945881  0.92090142     0.12750
C898        C  0.25373182  0.08842112  0.91330213     0.62280
F899        F  0.20224909  0.87920086  0.99597955    -0.22880
F900        F  0.28560302  0.91905403  0.00394470    -0.20210
F901        F  0.25033793  0.87655022  0.94383782    -0.19890
F902        F  0.24008271  0.10848432  0.94663735    -0.19940
F903        F  0.22217617  0.08041168  0.87984718    -0.20270
F904        F  0.30212414  0.12331885  0.90146716    -0.22940
C905        C  0.98508468  0.76849830  0.08484855    -0.05780
C906        C  0.00469221  0.79284327  0.04671464     0.00150
C907        C  0.02317928  0.76981831  0.01710530    -0.08420
C908        C  0.01850208  0.72283489  0.02598340    -0.05800
C909        C  0.99715832  0.69817361  0.06315854     0.00140
C910        C  0.98162320  0.72183360  0.09371696    -0.08330
C911        C  0.96308388  0.69832554  0.13597727     0.62050
H912        H  0.97214304  0.78603688  0.10785575     0.12740
H913        H  0.03114569  0.70435384  0.00351521     0.12750
C914        C  0.04859279  0.79409591  0.97631564     0.62280
F915        F  0.95220978  0.72816568  0.16240440    -0.22880
F916        F  0.99996974  0.69098191  0.15452383    -0.20210
F917        F  0.91978371  0.65287966  0.13122316    -0.19890
F918        F  0.08758908  0.84161319  0.98433808    -0.19940
F919        F  0.01380925  0.79593624  0.94985634    -0.20270
F920        F  0.06912926  0.76796348  0.95561274    -0.22940
C921        C  0.05431567  0.30552816  0.93115964    -0.05780
C922        C  0.00910453  0.30674951  0.92473213     0.00150
C923        C  0.96414191  0.26036983  0.91853440    -0.08420
C924        C  0.96469502  0.21577536  0.92798380    -0.05800
C925        C  0.00962855  0.21518991  0.93714399     0.00140
C926        C  0.05586500  0.26077958  0.93581270    -0.08330
C927        C  0.10822813  0.26602513  0.93916772     0.62050
H928        H  0.08955745  0.34010213  0.93305360     0.12740
H929        H  0.92978935  0.18060962  0.92658151     0.12750
C930        C  0.91613388  0.25507334  0.89921044     0.62280
F931        F  0.13502815  0.28751923  0.90314143    -0.22880
F932        F  0.10837749  0.22160983  0.94435588    -0.20210
F933        F  0.13310589  0.29718027  0.97253065    -0.19890
F934        F  0.92447228  0.29648935  0.87689716    -0.19940
F935        F  0.88045981  0.24618883  0.92985117    -0.20270
F936        F  0.89661044  0.21510031  0.87135263    -0.22940
loop_ 
_geom_bond_atom_site_label_1 
_geom_bond_atom_site_label_2 
_geom_bond_distance 
_geom_bond_site_symmetry_2 
_ccdc_geom_bond_type 
C1           N19   1.353   1_455  A
C1           C38   1.461       .  S
C1          C925   1.486       .  S
N2           N19   1.328   1_455  A
N2           N24   1.320       .  A
N2          Co39   2.103   1_556  S
C3           N28   1.348       .  A
C3           C41   1.479       .  S
C3           H48   1.079       .  S
H4           C45   1.081       .  S
C5           N29   1.317       .  A
C5            C9   1.438   1_554  S
C5           H34   1.080       .  S
Co6          N24   2.085       .  S
Co6          N14   2.058       .  S
Co6          N46   2.045       .  S
Co6          N22   2.087       .  S
Co6         Cl50   2.423       .  S
N7           C45   1.348       .  A
N7           N14   1.319   1_665  A
N7           Co8   2.112       .  S
Co8          N11   2.127       .  S
Co8          N28   2.117   1_655  S
Co8          N15   2.082   1_556  S
Co8         Cl50   2.472   1_665  S
C9           N47   1.369       .  A
C9          C845   1.476       .  S
N10          N17   1.319   1_565  A
N10          N40   1.327       .  A
N10         Co43   2.105       .  S
N11          N29   1.317   1_556  A
N11          N47   1.332       .  A
N12          C41   1.350   1_545  A
N12          N22   1.327       .  A
H13          C38   1.082       .  S
N14          N35   1.319       .  A
N15          N33   1.320       .  A
N15          N20   1.321   1_655  A
C16          N20   1.347       .  A
C16          C44   1.481   1_455  S
C16         C906   1.511       .  S
N17          C32   1.346       .  A
N17         Co39   2.085   1_655  S
C18          N46   1.323       .  A
C18          C21   1.447   1_556  S
C18          H52   1.079       .  S
C21          N42   1.351       .  A
C21         C861   1.457       .  S
N22          N28   1.318   1_545  A
N23          C49   1.342       .  A
N23          N25   1.316   1_445  A
N23         Co39   2.093       .  S
N24          C38   1.344       .  A
N25          N53   1.319   1_655  A
N25         Co43   2.053       .  S
H26          C49   1.078       .  S
H27          C44   1.081       .  S
N29         Co43   2.020       .  S
N30          N42   1.322       .  A
N30          N46   1.315   1_554  A
N30         Co39   2.067       .  S
C31          N35   1.343   1_665  A
C31          C45   1.472       .  S
C31         C810   1.476   1_565  S
C32          C51   1.464       .  S
C32          H36   1.082       .  S
N33          C44   1.352       .  A
N33         Co43   2.120       .  S
C37          N53   1.347   1_545  A
C37          C49   1.469       .  S
C37         C829   1.483       .  S
Co39        Cl50   2.467   1_554  S
N40          C51   1.350   1_565  A
C41         C890   1.515       .  S
Co43        Cl50   2.422   1_664  S
C51         C874   1.487       .  S
C54          N72   1.356   1_565  A
C54          C91   1.466   1_655  S
C54         C826   1.494       .  S
N55          N72   1.322       .  A
N55          N77   1.315   1_645  A
N55         Co92   2.087       .  S
C56          N81   1.345       .  A
C56          C94   1.476   1_565  S
C56         H101   1.082       .  S
H57          C98   1.081       .  S
C58          N82   1.351       .  A
C58          C62   1.476       .  S
C58          H87   1.080       .  S
Co59         N77   2.060       .  S
Co59         N67   2.132       .  S
Co59         N99   2.098   1_565  S
Co59         N75   2.017   1_565  S
Co59       Cl103   2.422   1_565  S
N60          C98   1.311       .  A
N60          N67   1.316   1_655  A
N60         Co61   2.002   1_655  S
Co61         N64   2.111   1_455  S
Co61         N81   2.095       .  S
Co61         N68   2.075   1_565  S
Co61       Cl103   2.438   1_565  S
C62         N100   1.359       .  A
C62         C714   1.528       .  S
N63          N70   1.317       .  A
N63          N93   1.304   1_545  A
N63         Co96   2.028       .  S
N64          N82   1.313       .  A
N64         N100   1.332       .  A
N65          C94   1.319       .  A
N65          N75   1.303       .  A
H66          C91   1.077       .  S
N67          N88   1.334       .  A
N68          N86   1.318   1_455  A
N68          N73   1.321       .  A
C69          N73   1.348       .  A
C69          C97   1.469   1_455  S
C69         C813   1.486       .  S
N70          C85   1.349       .  A
N70         Co92   2.097       .  S
C71          N99   1.344       .  A
C71          C74   1.461       .  S
C71         H105   1.067       .  S
C74          N95   1.362       .  A
C74         C730   1.519       .  S
N75          N81   1.316   1_545  A
N76         C102   1.316       .  A
N76          N78   1.317   1_455  A
N76         Co92   2.010   1_455  S
N77          C91   1.336       .  A
N78         N106   1.332       .  A
N78         Co96   2.120       .  S
H79         C102   1.081       .  S
H80          C97   1.081       .  S
N82         Co96   2.112   1_565  S
N83          N95   1.338       .  A
N83          N99   1.313       .  A
N83         Co92   2.123   1_455  S
C84          N88   1.366   1_655  A
C84          C98   1.435       .  S
C84         C778   1.480   1_655  S
C85         C104   1.477   1_545  S
C85          H89   1.081       .  S
N86          C97   1.342       .  A
N86         Co96   2.083       .  S
C90         N106   1.364   1_455  A
C90         C102   1.428       .  S
C90         C794   1.457       .  S
Co92       Cl103   2.450   1_655  S
N93         C104   1.330       .  A
C94         C765   1.462   1_545  S
Co96       Cl103   2.431   1_655  S
C104        C746   1.447       .  S
C107        N125   1.351       .  A
C107        C144   1.457       .  S
C107        C701   1.473       .  S
N108        N125   1.324       .  A
N108        N130   1.321       .  A
N108       Co145   2.086   1_554  S
C109        N134   1.347       .  A
C109        C147   1.468       .  S
C109        H154   1.080       .  S
H110        C151   1.078       .  S
C111        N135   1.320       .  A
C111        C115   1.440   1_556  S
C111        H140   1.081       .  S
Co112       N130   2.086       .  S
Co112       N120   2.056       .  S
Co112       N152   2.029       .  S
Co112       N128   2.089       .  S
Co112      Cl156   2.402       .  S
N113        C151   1.347       .  A
N113        N120   1.315   1_655  A
N113       Co114   2.095       .  S
Co114       N117   2.099       .  S
Co114       N134   2.096       .  S
Co114       N121   2.062   1_554  S
Co114      Cl156   2.478   1_655  S
C115        N153   1.359       .  A
C115        C650   1.457       .  S
N116        N123   1.315   1_655  A
N116        N146   1.326       .  A
N116       Co149   2.090       .  S
N117        N135   1.319   1_554  A
N117        N153   1.328       .  A
N118        C147   1.351   1_455  A
N118        N128   1.326       .  A
H119        C144   1.081       .  S
N120        N141   1.317       .  A
N121        N139   1.317       .  A
N121        N126   1.315       .  A
C122        N126   1.343       .  A
C122        C150   1.473       .  S
C122        C682   1.489       .  S
N123        C138   1.341       .  A
N123       Co145   2.085       .  S
C124        N152   1.320       .  A
C124        C127   1.439   1_554  S
C124        H158   1.082       .  S
C127        N148   1.353       .  A
C127        C669   1.453       .  S
N128        N134   1.316   1_455  A
N129        C155   1.345       .  A
N129        N131   1.319   1_455  A
N129       Co145   2.102       .  S
N130        C144   1.340       .  A
N131        N159   1.322       .  A
N131       Co149   2.070       .  S
H132        C155   1.082       .  S
H133        C150   1.081       .  S
N135       Co149   2.040       .  S
N136        N148   1.324       .  A
N136        N152   1.318   1_556  A
N136       Co145   2.081       .  S
C137        N141   1.346   1_655  A
C137        C151   1.476       .  S
C137        C634   1.489   1_655  S
C138        C157   1.473       .  S
C138        H142   1.081       .  S
N139        C150   1.343       .  A
N139       Co149   2.087       .  S
C143        N159   1.347   1_455  A
C143        C155   1.469       .  S
C143        C618   1.478       .  S
Co145      Cl156   2.478   1_556  S
N146        C157   1.352   1_655  A
C147        C909   1.489       .  S
Co149      Cl156   2.410   1_656  S
C157        C922   1.502       .  S
C160        N178   1.326       .  A
C160        C197   1.476   1_455  S
C160        C797   1.453       .  S
N161        N178   1.306   1_655  A
N161        N183   1.317       .  A
N161       Co198   2.017       .  S
C162        N187   1.350       .  A
C162        C200   1.484       .  S
C162        H207   1.075       .  S
H163        C204   1.076       .  S
C164        N188   1.322       .  A
C164        C168   1.435       .  S
C164        H193   1.082       .  S
Co165       N183   2.107       .  S
Co165       N173   2.071   1_655  S
Co165       N205   2.026       .  S
Co165       N181   2.097       .  S
Co165      Cl209   2.435   1_655  S
N166        C204   1.340       .  A
N166        N173   1.316       .  A
N166       Co167   2.082       .  S
Co167       N170   2.132       .  S
Co167       N187   2.117   1_455  S
Co167       N174   2.027       .  S
Co167      Cl209   2.451       .  S
C168        N206   1.367       .  A
C168        C570   1.473       .  S
N169        N176   1.316       .  A
N169        N199   1.327       .  A
N169       Co202   2.081       .  S
N170        N188   1.319       .  A
N170        N206   1.334       .  A
N171        C200   1.356       .  A
N171        N181   1.328       .  A
H172        C197   1.081       .  S
N173        N194   1.321       .  A
N174        N192   1.319       .  A
N174        N179   1.308       .  A
C175        N179   1.331       .  A
C175        C203   1.467       .  S
C175        C781   1.448       .  S
N176        C191   1.353       .  A
N176       Co198   2.119   1_455  S
C177        N205   1.322       .  A
C177        C180   1.433       .  S
C177        H211   1.082       .  S
C180        N201   1.370       .  A
C180        C554   1.477       .  S
N181        N187   1.315       .  A
N182        C208   1.342       .  A
N182        N184   1.320   1_655  A
N182       Co198   2.086       .  S
N183        C197   1.351       .  A
N184        N212   1.323       .  A
N184       Co202   2.081       .  S
H185        C208   1.081       .  S
H186        C203   1.081       .  S
N188       Co202   2.036       .  S
N189        N201   1.335       .  A
N189        N205   1.316       .  A
N189       Co198   2.141       .  S
C190        N194   1.351       .  A
C190        C204   1.473       .  S
C190        C637   1.499       .  S
C191        C210   1.468       .  S
C191        H195   1.080       .  S
N192        C203   1.347       .  A
N192       Co202   2.090       .  S
C196        N212   1.348   1_655  A
C196        C208   1.465       .  S
C196        C621   1.481       .  S
Co198      Cl209   2.447   1_655  S
N199        C210   1.349       .  A
C200        C586   1.527       .  S
Co202      Cl209   2.435       .  S
C210        C602   1.496       .  S
C213        N231   1.364   1_565  A
C213        C250   1.464       .  S
C213        C893   1.513       .  S
N214        N231   1.332       .  A
N214        N236   1.314   1_545  A
N214       Co251   2.106       .  S
C215        N240   1.336       .  A
C215        C253   1.456       .  S
C215        H260   1.082   1_556  S
H216        C257   1.078       .  S
C217        N241   1.331       .  A
C217        C221   1.449   1_545  S
C217        H246   1.082       .  S
Co218       N236   2.089       .  S
Co218       N226   2.017   1_556  S
Co218       N258   2.039       .  S
Co218       N234   2.085       .  S
Co218      Cl262   2.382   1_566  S
N219        C257   1.352       .  A
N219        N226   1.313       .  A
N219       Co220   2.095       .  S
Co220       N223   2.104       .  S
Co220       N240   2.068   1_554  S
Co220       N227   2.089       .  S
Co220      Cl262   2.493   1_565  S
C221        N259   1.358       .  A
C221        C509   1.472       .  S
N222        N229   1.320       .  A
N222        N252   1.327       .  A
N222       Co255   2.090       .  S
N223        N241   1.318   1_565  A
N223        N259   1.329       .  A
N224        C253   1.350       .  A
N224        N234   1.325       .  A
H225        C250   1.074       .  S
N226        N247   1.298   1_554  A
N227        N245   1.319   1_565  A
N227        N232   1.329       .  A
C228        N232   1.353   1_545  A
C228        C256   1.459       .  S
C228        C877   1.487       .  S
N229        C244   1.336       .  A
N229       Co251   2.078   1_554  S
C230        N258   1.329       .  A
C230        C233   1.448   1_565  S
C230        H264   1.079       .  S
C233        N254   1.361       .  A
C233        C493   1.486       .  S
N234        N240   1.319       .  A
N235        C261   1.351       .  A
N235        N237   1.321   1_556  A
N235       Co251   2.110       .  S
N236        C250   1.339       .  A
N237        N265   1.308       .  A
N237       Co255   2.031       .  S
H238        C261   1.082       .  S
H239        C256   1.081       .  S
N241       Co255   2.055       .  S
N242        N254   1.331       .  A
N242        N258   1.316   1_545  A
N242       Co251   2.118       .  S
C243        N247   1.330   1_554  A
C243        C257   1.490       .  S
C243        C666   1.488       .  S
C244        C263   1.457       .  S
C244        H248   1.082   1_554  S
N245        C256   1.344       .  A
N245       Co255   2.099       .  S
C249        N265   1.330   1_556  A
C249        C261   1.476       .  S
C249        C653   1.459       .  S
Co251      Cl262   2.488   1_556  S
N252        C263   1.352       .  A
C253        C522   1.469       .  S
Co255      Cl262   2.401       .  S
C263        C541   1.474       .  S
C266        N284   1.356       .  A
C266        C303   1.479       .  S
C266        C477   1.529       .  S
N267        N284   1.331       .  A
N267        N289   1.317       .  A
N267       Co304   2.109   1_545  S
C268        N293   1.315   1_565  A
C268        C306   1.430       .  S
C268        H313   1.081       .  S
H269        C310   1.081       .  S
C270        N294   1.338       .  A
C270        C274   1.458       .  S
C270        H299   1.082   1_545  S
Co271       N289   2.121       .  S
Co271       N279   2.030       .  S
Co271       N311   2.069       .  S
Co271       N287   2.104       .  S
Co271      Cl315   2.441       .  S
N272        C310   1.355       .  A
N272        N279   1.320       .  A
N272       Co273   2.125       .  S
Co273       N276   2.083       .  S
Co273       N293   2.023       .  S
Co273       N280   2.122   1_545  S
Co273      Cl315   2.439       .  S
C274        N312   1.351       .  A
C274        C506   1.484       .  S
N275        N282   1.317   1_565  A
N275        N305   1.322       .  A
N275       Co308   2.078       .  S
N276        N294   1.319       .  A
N276        N312   1.324       .  A
N277        C306   1.362   1_545  A
N277        N287   1.331       .  A
H278        C303   1.080       .  S
N279        N300   1.311       .  A
N280        N298   1.314       .  A
N280        N285   1.333       .  A
C281        N285   1.357       .  A
C281        C309   1.457       .  S
C281        C461   1.500       .  S
N282        C297   1.317       .  A
N282       Co304   2.014   1_545  S
C283        N311   1.338       .  A
C283        C286   1.461   1_545  S
C283        H317   1.077       .  S
C286        N307   1.353       .  A
C286        C490   1.487   1_565  S
N287        N293   1.317       .  A
N288        C314   1.359       .  A
N288        N290   1.321       .  A
N288       Co304   2.146       .  S
N289        C303   1.354       .  A
N290        N318   1.309       .  A
N290       Co308   2.021       .  S
H291        C314   1.081       .  S
H292        C309   1.080       .  S
N294       Co308   2.073   1_545  S
N295        N307   1.323       .  A
N295        N311   1.316   1_565  A
N295       Co304   2.078       .  S
C296        N300   1.330       .  A
C296        C310   1.484       .  S
C296        C557   1.473       .  S
C297        C316   1.430   1_545  S
C297        H301   1.078       .  S
N298        C309   1.346       .  A
N298       Co308   2.081       .  S
C302        N318   1.327       .  A
C302        C314   1.487       .  S
C302        C573   1.474       .  S
Co304      Cl315   2.436   1_565  S
N305        C316   1.353       .  A
C306        C749   1.455       .  S
Co308      Cl315   2.437   1_565  S
C316        C762   1.454       .  S
C319        N337   1.352       .  A
C319        C356   1.479       .  S
C319        C698   1.506       .  S
N320        N337   1.320       .  A
N320        N342   1.314       .  A
N320       Co357   2.075       .  S
C321        N346   1.324       .  A
C321        C359   1.445   1_556  S
C321        H366   1.081       .  S
H322        C363   1.080       .  S
C323        N347   1.344       .  A
C323        C327   1.470       .  S
C323        H352   1.078       .  S
Co324       N342   2.089       .  S
Co324       N332   2.084   1_554  S
Co324       N364   2.112       .  S
Co324       N340   2.107       .  S
Co324      Cl368   2.471       .  S
N325        C363   1.342       .  A
N325        N332   1.319       .  A
N325       Co326   2.074       .  S
Co326       N329   2.058       .  S
Co326       N346   2.043       .  S
Co326       N333   2.062       .  S
Co326      Cl368   2.416   1_556  S
C327        N365   1.346       .  A
C327        C426   1.482       .  S
N328        N335   1.317   1_556  A
N328        N358   1.323       .  A
N328       Co361   2.080       .  S
N329        N347   1.318       .  A
N329        N365   1.318       .  A
N330        C359   1.364       .  A
N330        N340   1.328       .  A
H331        C356   1.074       .  S
N332        N353   1.321       .  A
N333        N351   1.317       .  A
N333        N338   1.318       .  A
C334        N338   1.342       .  A
C334        C362   1.464       .  S
C334        C685   1.463       .  S
N335        C350   1.325       .  A
N335       Co357   2.040       .  S
C336        N364   1.349       .  A
C336        C339   1.478       .  S
C336        H370   1.081       .  S
C339        N360   1.341       .  A
C339        C442   1.490       .  S
N340        N346   1.318   1_554  A
N341        C367   1.342       .  A
N341        N343   1.319       .  A
N341       Co357   2.080       .  S
N342        C356   1.342       .  A
N343        N371   1.322       .  A
N343       Co361   2.084   1_554  S
H344        C367   1.080       .  S
H345        C362   1.081       .  S
N347       Co361   2.093       .  S
N348        N360   1.317       .  A
N348        N364   1.318       .  A
N348       Co357   2.053       .  S
C349        N353   1.348       .  A
C349        C363   1.461       .  S
C349        C525   1.474       .  S
C350        C369   1.446   1_554  S
C350        H354   1.082       .  S
N351        C362   1.344       .  A
N351       Co361   2.083       .  S
C355        N371   1.349       .  A
C355        C367   1.457       .  S
C355        C538   1.469       .  S
Co357      Cl368   2.415       .  S
N358        C369   1.353       .  A
C359        C842   1.475       .  S
Co361      Cl368   2.464   1_556  S
C369        C858   1.464       .  S
C372        N390   1.350       .  A
C372        C409   1.468       .  S
C372        C605   1.496       .  S
N373        N390   1.329       .  A
N373        N395   1.324       .  A
N373       Co410   2.101       .  S
C374        N399   1.344       .  A
C374        C412   1.461       .  S
C374        H419   1.082       .  S
H375        C416   1.078       .  S
C376        N400   1.342       .  A
C376        C380   1.472       .  S
C376        H405   1.081       .  S
Co377       N395   2.121       .  S
Co377       N385   2.098       .  S
Co377       N417   2.092       .  S
Co377       N393   2.132       .  S
Co377      Cl421   2.471       .  S
N378        C416   1.349       .  A
N378        N385   1.320       .  A
N378       Co379   2.118       .  S
Co379       N382   2.079       .  S
Co379       N399   2.093       .  S
Co379       N386   2.111       .  S
Co379      Cl421   2.460       .  S
C380        N418   1.346       .  A
C380        C445   1.491       .  S
N381        N388   1.321       .  A
N381        N411   1.338       .  A
N381       Co414   2.150       .  S
N382        N400   1.322       .  A
N382        N418   1.322       .  A
N383        C412   1.361       .  A
N383        N393   1.335       .  A
H384        C409   1.081       .  S
N385        N406   1.328       .  A
N386        N404   1.321       .  A
N386        N391   1.329       .  A
C387        N391   1.359       .  A
C387        C415   1.480       .  S
C387        C589   1.524       .  S
N388        C403   1.341       .  A
N388       Co410   2.082       .  S
C389        N417   1.339       .  A
C389        C392   1.466       .  S
C389        H423   1.077       .  S
C392        N413   1.350       .  A
C392        C429   1.486       .  S
N393        N399   1.322       .  A
N394        C420   1.353       .  A
N394        N396   1.322       .  A
N394       Co410   2.129       .  S
N395        C409   1.350       .  A
N396        N424   1.329       .  A
N396       Co414   2.103       .  S
H397        C420   1.081       .  S
H398        C415   1.075       .  S
N400       Co414   2.101       .  S
N401        N413   1.323       .  A
N401        N417   1.322       .  A
N401       Co410   2.084       .  S
C402        N406   1.356       .  A
C402        C416   1.475       .  S
C402        C458   1.511       .  S
C403        C422   1.457       .  S
C403        H407   1.082       .  S
N404        C415   1.346       .  A
N404       Co414   2.120       .  S
C408        N424   1.353       .  A
C408        C420   1.475       .  S
C408        C474   1.506       .  S
Co410      Cl421   2.464       .  S
N411        C422   1.367       .  A
C412        C717   1.507       .  S
Co414      Cl421   2.473       .  S
C422        C733   1.508       .  S
C425        H432   1.083       .  S
C425        C426   1.402       .  A
C425        C430   1.405       .  A
C426        C427   1.421       .  A
C427        C428   1.409       .  A
C427        C434   1.519       .  S
C428        H433   1.083       .  S
C428        C429   1.404       .  A
C429        C430   1.422       .  A
C430        C431   1.520       .  S
C431        F435   1.385       .  S
C431        F436   1.383       .  S
C431        F437   1.381       .  S
C434        F438   1.381       .  S
C434        F439   1.383       .  S
C434        F440   1.385       .  S
C441        H448   1.082       .  S
C441        C442   1.404       .  A
C441        C446   1.411       .  A
C442        C443   1.424       .  A
C443        C444   1.405       .  A
C443        C450   1.521       .  S
C444        H449   1.081       .  S
C444        C445   1.402       .  A
C445        C446   1.423       .  A
C446        C447   1.519       .  S
C447        F451   1.385       .  S
C447        F452   1.382       .  S
C447        F453   1.384       .  S
C450        F454   1.383       .  S
C450        F455   1.382       .  S
C450        F456   1.385       .  S
C457        H464   1.083       .  S
C457        C458   1.409       .  A
C457        C462   1.415       .  A
C458        C459   1.425       .  A
C459        C460   1.420       .  A
C459        C466   1.516       .  S
C460        H465   1.083       .  S
C460        C461   1.404       .  A
C461        C462   1.419       .  A
C462        C463   1.518       .  S
C463        F467   1.385       .  S
C463        F468   1.383       .  S
C463        F469   1.380       .  S
C466        F470   1.383       .  S
C466        F471   1.380       .  S
C466        F472   1.385       .  S
C473        H480   1.083       .  S
C473        C474   1.401       .  A
C473        C478   1.422       .  A
C474        C475   1.415       .  A
C475        C476   1.421       .  A
C475        C482   1.515       .  S
C476        H481   1.081       .  S
C476        C477   1.414       .  A
C477        C478   1.435       .  A
C478        C479   1.517       .  S
C479        F483   1.385       .  S
C479        F484   1.383       .  S
C479        F485   1.381       .  S
C482        F486   1.383       .  S
C482        F487   1.383       .  S
C482        F488   1.383       .  S
C489        H496   1.085       .  S
C489        C490   1.399   1_565  A
C489        C494   1.402       .  A
C490        C491   1.428       .  A
C491        C492   1.410       .  A
C491        C498   1.519       .  S
C492        H497   1.083       .  S
C492        C493   1.399       .  A
C493        C494   1.425   1_545  A
C494        C495   1.522       .  S
C495        F499   1.385       .  S
C495        F500   1.383       .  S
C495        F501   1.383       .  S
C498        F502   1.384       .  S
C498        F503   1.380       .  S
C498        F504   1.385       .  S
C505        H512   1.083       .  S
C505        C506   1.404       .  A
C505        C510   1.406       .  A
C506        C507   1.425   1_545  A
C507        C508   1.408       .  A
C507        C514   1.521       .  S
C508        H513   1.083       .  S
C508        C509   1.400       .  A
C509        C510   1.412   1_565  A
C510        C511   1.517       .  S
C511        F515   1.384       .  S
C511        F516   1.383   1_545  S
C511        F517   1.382       .  S
C514        F518   1.384       .  S
C514        F519   1.383   1_565  S
C514        F520   1.385       .  S
C521        H528   1.083       .  S
C521        C522   1.398       .  A
C521        C526   1.407       .  A
C522        C523   1.417       .  A
C523        C524   1.404       .  A
C523        C530   1.522       .  S
C524        H529   1.083       .  S
C524        C525   1.401       .  A
C525        C526   1.420       .  A
C526        C527   1.518       .  S
C527        F531   1.385       .  S
C527        F532   1.381       .  S
C527        F533   1.383       .  S
C530        F534   1.382       .  S
C530        F535   1.382   1_556  S
C530        F536   1.385       .  S
C537        H544   1.082       .  S
C537        C538   1.402       .  A
C537        C542   1.406       .  A
C538        C539   1.409       .  A
C539        C540   1.407       .  A
C539        C546   1.516       .  S
C540        H545   1.081       .  S
C540        C541   1.405       .  A
C541        C542   1.414       .  A
C542        C543   1.517       .  S
C543        F547   1.384       .  S
C543        F548   1.384       .  S
C543        F549   1.382       .  S
C546        F550   1.384       .  S
C546        F551   1.383       .  S
C546        F552   1.381       .  S
C553        H560   1.081       .  S
C553        C554   1.400       .  A
C553        C558   1.408       .  A
C554        C555   1.415       .  A
C555        C556   1.410       .  A
C555        C562   1.516       .  S
C556        H561   1.084       .  S
C556        C557   1.406       .  A
C557        C558   1.418       .  A
C558        C559   1.512       .  S
C559        F563   1.381       .  S
C559        F564   1.375       .  S
C559        F565   1.376       .  S
C562        F566   1.382       .  S
C562        F567   1.383       .  S
C562        F568   1.383       .  S
C569        H576   1.083       .  S
C569        C570   1.402       .  A
C569        C574   1.410       .  A
C570        C571   1.416       .  A
C571        C572   1.406       .  A
C571        C578   1.519       .  S
C572        H577   1.084       .  S
C572        C573   1.403       .  A
C573        C574   1.419       .  A
C574        C575   1.512       .  S
C575        F579   1.384       .  S
C575        F580   1.382       .  S
C575        F581   1.381       .  S
C578        F582   1.383       .  S
C578        F583   1.381       .  S
C578        F584   1.385       .  S
C585        H592   1.082       .  S
C585        C586   1.411       .  A
C585        C590   1.420       .  A
C586        C587   1.427       .  A
C587        C588   1.421       .  A
C587        C594   1.514       .  S
C588        H593   1.082       .  S
C588        C589   1.410       .  A
C589        C590   1.428       .  A
C590        C591   1.517       .  S
C591        F595   1.385       .  S
C591        F596   1.383       .  S
C591        F597   1.381       .  S
C594        F598   1.382       .  S
C594        F599   1.382       .  S
C594        F600   1.385       .  S
C601        H608   1.083       .  S
C601        C602   1.404       .  A
C601        C606   1.416       .  A
C602        C603   1.421       .  A
C603        C604   1.417       .  A
C603        C610   1.518       .  S
C604        H609   1.083       .  S
C604        C605   1.404       .  A
C605        C606   1.418       .  A
C606        C607   1.516       .  S
C607        F611   1.384       .  S
C607        F612   1.383       .  S
C607        F613   1.383       .  S
C610        F614   1.382       .  S
C610        F615   1.383       .  S
C610        F616   1.385       .  S
C617        H624   1.083       .  S
C617        C618   1.401       .  A
C617        C622   1.409       .  A
C618        C619   1.414   1_455  A
C619        C620   1.408       .  A
C619        C626   1.516       .  S
C620        H625   1.083       .  S
C620        C621   1.402       .  A
C621        C622   1.423   1_655  A
C622        C623   1.521       .  S
C623        F627   1.385       .  S
C623        F628   1.383       .  S
C623        F629   1.381       .  S
C626        F630   1.383   1_655  S
C626        F631   1.382       .  S
C626        F632   1.384       .  S
C633        H640   1.083       .  S
C633        C634   1.407       .  A
C633        C638   1.405       .  A
C634        C635   1.413   1_455  A
C635        C636   1.409       .  A
C635        C642   1.518       .  S
C636        H641   1.082       .  S
C636        C637   1.415   1_655  A
C637        C638   1.421       .  A
C638        C639   1.519       .  S
C639        F643   1.385       .  S
C639        F644   1.383       .  S
C639        F645   1.382       .  S
C642        F646   1.383       .  S
C642        F647   1.381       .  S
C642        F648   1.385       .  S
C649        H656   1.085       .  S
C649        C650   1.397       .  A
C649        C654   1.403       .  A
C650        C651   1.408       .  A
C651        C652   1.401   1_554  A
C651        C658   1.522       .  S
C652        H657   1.083       .  S
C652        C653   1.405       .  A
C653        C654   1.424   1_556  A
C654        C655   1.517       .  S
C655        F659   1.380       .  S
C655        F660   1.376   1_554  S
C655        F661   1.383   1_554  S
C658        F662   1.384       .  S
C658        F663   1.383       .  S
C658        F664   1.381       .  S
C665        H672   1.079       .  S
C665        C666   1.425   1_556  A
C665        C670   1.388       .  A
C666        C667   1.414       .  A
C667        C668   1.405       .  A
C667        C674   1.515       .  S
C668        H673   1.084       .  S
C668        C669   1.409   1_554  A
C669        C670   1.391       .  A
C670        C671   1.521       .  S
C671        F675   1.384       .  S
C671        F676   1.383       .  S
C671        F677   1.383       .  S
C674        F678   1.383       .  S
C674        F679   1.382       .  S
C674        F680   1.385       .  S
C681        H688   1.079       .  S
C681        C682   1.410       .  A
C681        C686   1.405       .  A
C682        C683   1.430       .  A
C683        C684   1.402       .  A
C683        C690   1.525   1_556  S
C684        H689   1.083       .  S
C684        C685   1.396       .  A
C685        C686   1.406       .  A
C686        C687   1.516       .  S
C687        F691   1.384       .  S
C687        F692   1.384       .  S
C687        F693   1.383       .  S
C690        F694   1.384       .  S
C690        F695   1.382       .  S
C690        F696   1.384       .  S
C697        H704   1.082       .  S
C697        C698   1.414       .  A
C697        C702   1.405       .  A
C698        C699   1.428       .  A
C699        C700   1.412       .  A
C699        C706   1.513       .  S
C700        H705   1.083       .  S
C700        C701   1.398       .  A
C701        C702   1.403       .  A
C702        C703   1.515       .  S
C703        F707   1.381       .  S
C703        F708   1.383       .  S
C703        F709   1.383       .  S
C706        F710   1.381       .  S
C706        F711   1.383       .  S
C706        F712   1.382       .  S
C713        H720   1.080       .  S
C713        C714   1.414       .  A
C713        C718   1.422       .  A
C714        C715   1.430       .  A
C715        C716   1.420       .  A
C715        C722   1.513       .  S
C716        H721   1.083       .  S
C716        C717   1.402       .  A
C717        C718   1.418       .  A
C718        C719   1.517       .  S
C719        F723   1.384       .  S
C719        F724   1.383       .  S
C719        F725   1.383       .  S
C722        F726   1.383       .  S
C722        F727   1.376       .  S
C722        F728   1.385       .  S
C729        H736   1.083       .  S
C729        C730   1.412       .  A
C729        C734   1.425       .  A
C730        C731   1.430       .  A
C731        C732   1.417       .  A
C731        C738   1.521       .  S
C732        H737   1.084       .  S
C732        C733   1.403       .  A
C733        C734   1.419       .  A
C734        C735   1.515       .  S
C735        F739   1.384       .  S
C735        F740   1.383       .  S
C735        F741   1.384       .  S
C738        F742   1.381       .  S
C738        F743   1.384       .  S
C738        F744   1.385       .  S
C745        H752   1.084       .  S
C745        C746   1.403   1_545  A
C745        C750   1.400       .  A
C746        C747   1.411       .  A
C747        C748   1.401       .  A
C747        C754   1.518       .  S
C748        H753   1.084       .  S
C748        C749   1.406       .  A
C749        C750   1.410   1_565  A
C750        C751   1.513       .  S
C751        F755   1.384       .  S
C751        F756   1.383       .  S
C751        F757   1.381       .  S
C754        F758   1.383       .  S
C754        F759   1.383       .  S
C754        F760   1.384       .  S
C761        H768   1.085       .  S
C761        C762   1.382       .  A
C761        C766   1.390       .  A
C762        C763   1.424       .  A
C763        C764   1.390       .  A
C763        C770   1.517       .  S
C764        H769   1.085       .  S
C764        C765   1.390       .  A
C765        C766   1.441       .  A
C766        C767   1.528       .  S
C767        F771   1.386       .  S
C767        F772   1.378   1_565  S
C767        F773   1.381       .  S
C770        F774   1.383       .  S
C770        F775   1.380       .  S
C770        F776   1.384       .  S
C777        H784   1.081       .  S
C777        C778   1.410   1_655  A
C777        C782   1.393       .  A
C778        C779   1.416       .  A
C779        C780   1.408       .  A
C779        C786   1.511       .  S
C780        H785   1.084       .  S
C780        C781   1.407       .  A
C781        C782   1.399   1_455  A
C782        C783   1.517       .  S
C783        F787   1.379       .  S
C783        F788   1.382       .  S
C783        F789   1.382       .  S
C786        F790   1.380       .  S
C786        F791   1.383       .  S
C786        F792   1.384       .  S
C793        H800   1.084       .  S
C793        C794   1.395   1_655  A
C793        C798   1.401       .  A
C794        C795   1.422       .  A
C795        C796   1.398       .  A
C795        C802   1.519       .  S
C796        H801   1.086       .  S
C796        C797   1.394       .  A
C797        C798   1.419   1_455  A
C798        C799   1.514       .  S
C799        F803   1.382       .  S
C799        F804   1.380       .  S
C799        F805   1.381       .  S
C802        F806   1.383       .  S
C802        F807   1.383       .  S
C802        F808   1.384       .  S
C809        H816   1.083       .  S
C809        C810   1.403   1_455  A
C809        C814   1.407       .  A
C810        C811   1.410       .  A
C811        C812   1.409       .  A
C811        C818   1.515   1_545  S
C812        H817   1.082       .  S
C812        C813   1.409   1_655  A
C813        C814   1.418       .  A
C814        C815   1.520       .  S
C815        F819   1.385       .  S
C815        F820   1.383       .  S
C815        F821   1.382       .  S
C818        F822   1.383   1_565  S
C818        F823   1.383       .  S
C818        F824   1.384       .  S
C825        H832   1.081       .  S
C825        C826   1.409   1_545  A
C825        C830   1.407   1_655  A
C826        C827   1.422   1_655  A
C827        C828   1.406       .  A
C827        C834   1.519       .  S
C828        H833   1.084       .  S
C828        C829   1.403   1_565  A
C829        C830   1.420       .  A
C830        C831   1.521   1_455  S
C831        F835   1.385       .  S
C831        F836   1.383       .  S
C831        F837   1.381   1_655  S
C834        F838   1.383   1_455  S
C834        F839   1.382       .  S
C834        F840   1.385       .  S
C841        H848   1.084       .  S
C841        C842   1.398       .  A
C841        C846   1.399       .  A
C842        C843   1.424   1_554  A
C843        C844   1.403       .  A
C843        C850   1.518       .  S
C844        H849   1.084       .  S
C844        C845   1.400       .  A
C845        C846   1.427   1_556  A
C846        C847   1.522       .  S
C847        F851   1.384       .  S
C847        F852   1.382   1_554  S
C847        F853   1.385       .  S
C850        F854   1.383       .  S
C850        F855   1.379       .  S
C850        F856   1.384       .  S
C857        H864   1.084       .  S
C857        C858   1.403   1_554  A
C857        C862   1.398       .  A
C858        C859   1.421       .  A
C859        C860   1.399   1_556  A
C859        C866   1.521       .  S
C860        H865   1.084       .  S
C860        C861   1.399       .  A
C861        C862   1.414       .  A
C862        C863   1.520       .  S
C863        F867   1.379       .  S
C863        F868   1.383       .  S
C863        F869   1.381       .  S
C866        F870   1.382   1_556  S
C866        F871   1.383       .  S
C866        F872   1.385       .  S
C873        H880   1.083       .  S
C873        C874   1.403       .  A
C873        C878   1.412       .  A
C874        C875   1.417   1_545  A
C875        C876   1.412       .  A
C875        C882   1.517       .  S
C876        H881   1.083       .  S
C876        C877   1.403   1_565  A
C877        C878   1.419       .  A
C878        C879   1.518   1_554  S
C879        F883   1.385       .  S
C879        F884   1.380       .  S
C879        F885   1.384   1_545  S
C882        F886   1.384   1_565  S
C882        F887   1.382       .  S
C882        F888   1.384       .  S
C889        H896   1.080       .  S
C889        C890   1.403       .  A
C889        C894   1.414       .  A
C890        C891   1.429   1_565  A
C891        C892   1.417       .  A
C891        C898   1.516       .  S
C892        H897   1.082       .  S
C892        C893   1.405   1_545  A
C893        C894   1.431       .  A
C894        C895   1.519       .  S
C895        F899   1.385       .  S
C895        F900   1.383   1_556  S
C895        F901   1.380       .  S
C898        F902   1.378       .  S
C898        F903   1.383       .  S
C898        F904   1.385       .  S
C905        H912   1.080       .  S
C905        C906   1.411   1_655  A
C905        C910   1.416       .  A
C906        C907   1.433       .  A
C907        C908   1.411       .  A
C907        C914   1.521   1_554  S
C908        H913   1.083       .  S
C908        C909   1.397   1_455  A
C909        C910   1.413       .  A
C910        C911   1.516       .  S
C911        F915   1.384       .  S
C911        F916   1.384       .  S
C911        F917   1.382       .  S
C914        F918   1.382       .  S
C914        F919   1.383       .  S
C914        F920   1.385       .  S
C921        H928   1.081       .  S
C921        C922   1.404       .  A
C921        C926   1.405       .  A
C922        C923   1.427   1_455  A
C923        C924   1.413       .  A
C923        C930   1.520       .  S
C924        H929   1.085       .  S
C924        C925   1.403   1_655  A
C925        C926   1.421       .  A
C926        C927   1.518       .  S
C927        F931   1.384       .  S
C927        F932   1.376       .  S
C927        F933   1.381       .  S
C930        F934   1.381       .  S
C930        F935   1.380       .  S
C930        F936   1.385       .  S
