geometry optimzed in LAMMPS
_audit_creation_date              2020-11-30 
_audit_creation_method            'lammps2cif' 
_symmetry_space_group_name_H-M    'P1' 
_symmetry_Int_Tables_number       1 
_symmetry_cell_setting            triclinic 
loop_ 
_symmetry_equiv_pos_as_xyz 
  x,y,z 
_cell_length_a                    29.52510051 
_cell_length_b                    29.592063938017848 
_cell_length_c                    29.6223560954558 
_cell_angle_alpha                 89.93170410949612 
_cell_angle_beta                  90.12476666732233 
_cell_angle_gamma                 90.19592205559641 
loop_ 
_atom_site_label 
_atom_site_type_symbol 
_atom_site_fract_x 
_atom_site_fract_y 
_atom_site_fract_z 
_atom_site_charge 
O1          O  0.96468458  0.03396184  0.43414320    -0.87800
C2          C  0.91847833  0.02888407  0.56355227     0.88200
Mg3        Mg  0.98298419  0.97398230  0.39766852     1.58100
O4          O  0.03017764  0.06856804  0.55176269    -0.87500
O5          O  0.99373314  0.09871020  0.45513657    -0.74900
C6          C  0.11835878  0.85877277  0.53329585     0.93300
O7          O  0.90409983  0.95662754  0.48115887    -0.74700
O8          O  0.08682060  0.85209292  0.50461935    -0.82200
Mg9        Mg  0.89924913  0.03273108  0.46637314     1.58000
C10         C  0.13187659  0.01917662  0.63727438     0.93200
O11         O  0.88355160  0.10773956  0.45158328    -0.80400
H12         H  0.07449115  0.11223528  0.52516298    -0.05800
C13         C  0.01796487  0.93471505  0.58570021     0.88100
O14         O  0.05826928  0.98426493  0.41362419    -0.75000
O15         O  0.93228965  0.04852624  0.52936012    -0.87700
O16         O  0.09355829  0.03894493  0.63929538    -0.80500
C17         C  0.97288875  0.12437921  0.64201053     0.93300
C18         C  0.88586195  0.14502282  0.47304594     0.93200
Mg19       Mg  0.10369602  0.97146612  0.54164212     1.58000
O20         O  0.12279882  0.89652678  0.55375022    -0.80500
O21         O  0.09657753  0.04741127  0.52708179    -0.74700
O22         O  0.95585405  0.12903683  0.60263174    -0.80500
O23         O  0.86387450  0.01517018  0.40040522    -0.82200
O24         O  0.04219792  0.87164806  0.40861576    -0.80600
C25         C  0.06729213  0.07772040  0.53484450     0.87600
O26         O  0.06919228  0.95428135  0.48014998    -0.87700
O27         O  0.03937700  0.96939175  0.57634991    -0.87800
O28         O  0.00854103  0.90529890  0.55595959    -0.74900
Mg29       Mg  0.97357885  0.10861421  0.52946627     1.58000
O30         O  0.00009641  0.09234408  0.65116196    -0.82200
H31         H  0.99886834  0.07382572  0.39152339    -0.06000
O32         O  0.97125194  0.93518852  0.45876919    -0.87500
H33         H  0.92570812  0.89163530  0.48354413    -0.05800
H34         H  0.11992387  0.98004598  0.44364720    -0.06000
C35         C  0.93348734  0.92616014  0.47434711     0.87600
C36         C  0.98584447  0.06893764  0.42526368     0.88200
C37         C  0.08413881  0.97250061  0.44574451     0.88200
H38         H  0.00569489  0.93000919  0.61975219    -0.05900
O39         O  0.94503051  0.01791341  0.59554802    -0.75000
Mg40       Mg  0.02703065  0.89439127  0.48146717     1.58000
H41         H  0.88307278  0.01972650  0.56576256    -0.06000
C42         C  0.87305052  0.98537797  0.37085695     0.93200
O43         O  0.00240976  0.91108130  0.35849794    -0.82200
C44         C  0.02706761  0.87736210  0.36865998     0.93300
O45         O  0.91386626  0.15072326  0.50533639    -0.82200
Mg46       Mg  0.02040591  0.02938988  0.61248478     1.58200
O47         O  0.91083229  0.96480083  0.37081135    -0.80500
O48         O  0.14066142  0.99049436  0.60645942    -0.82200
O49         O  0.02601149  0.43717683  0.95377364    -0.87800
C50         C  0.02546267  0.57090299  0.92009763     0.88200
Mg51       Mg  0.96531098  0.40193429  0.97253768     1.58100
O52         O  0.06871575  0.54716117  0.02859654    -0.87500
O53         O  0.09274674  0.45285299  0.98202514    -0.74900
C54         C  0.86045125  0.53244456  0.12096367     0.93300
O55         O  0.94737907  0.49265260  0.90207363    -0.74700
O56         O  0.85148100  0.50557591  0.08862867    -0.82200
Mg57       Mg  0.02244902  0.47597640  0.89202185     1.58000
C58         C  0.02404591  0.62802786  0.13740407     0.93200
O59         O  0.09569068  0.46169168  0.87077833    -0.80400
H60         H  0.11302416  0.51619126  0.06920936    -0.05800
C61         C  0.93641864  0.58762136  0.02387883     0.88100
O62         O  0.98022905  0.41148834  0.04784505    -0.75000
O63         O  0.04331985  0.53455512  0.93013195    -0.87700
O64         O  0.04497853  0.63129451  0.09983118    -0.80500
C65         C  0.12638625  0.63987894  0.97698452     0.93300
C66         C  0.13470415  0.48008518  0.87357766     0.93200
Mg67       Mg  0.97355348  0.53556259  0.10434134     1.58000
O68         O  0.89984544  0.54965777  0.12587263    -0.80500
O69         O  0.04903632  0.51894490  0.09400239    -0.74700
O70         O  0.12884885  0.60205329  0.95646126    -0.80500
O71         O  0.00000262  0.41365354  0.85180655    -0.82200
O72         O  0.86635914  0.41275773  0.03777342    -0.80600
C73         C  0.07860078  0.52745164  0.06404755     0.87600
O74         O  0.95294012  0.47752173  0.06628824    -0.87700
O75         O  0.97123738  0.57489883  0.04311746    -0.87800
O76         O  0.90516717  0.56011124  0.01324017    -0.74900
Mg77       Mg  0.10548449  0.52832824  0.96838049     1.58000
O78         O  0.09586984  0.64754913  0.00619595    -0.82200
H79         H  0.06526825  0.38989010  0.98184176    -0.06000
O80         O  0.92909018  0.46526130  0.96808256    -0.87500
H81         H  0.88370878  0.49472471  0.92757022    -0.05800
H82         H  0.98071998  0.43599909  0.11174365    -0.06000
C83         C  0.91836551  0.48408080  0.93243454     0.87600
C84         C  0.06142047  0.42496713  0.97237112     0.88200
C85         C  0.97102640  0.44146824  0.07695526     0.88200
H86         H  0.93317088  0.62278982  0.01453253    -0.05900
O87         O  0.01736799  0.60086694  0.94963708    -0.75000
Mg88       Mg  0.89155047  0.48500489  0.02673024     1.58000
H89         H  0.01541367  0.57688138  0.88549257    -0.06000
C90         C  0.97066272  0.38322567  0.86073061     0.93200
O91         O  0.90144012  0.36439933  0.99231544    -0.82200
C92         C  0.86956723  0.37401476  0.01945045     0.93300
O93         O  0.14442306  0.50807186  0.90485927    -0.82200
Mg94       Mg  0.03210918  0.61018650  0.02539125     1.58200
O95         O  0.95179381  0.38066175  0.89930466    -0.80500
O96         O  0.99475878  0.59716361  0.14424691    -0.82200
O97         O  0.42709896  0.53371978  0.46603642    -0.87800
C98         C  0.55899026  0.57606182  0.47519150     0.88200
Mg99       Mg  0.38937039  0.51267318  0.52412183     1.58100
O100        O  0.54600968  0.46723147  0.42947860    -0.87500
O101        O  0.44966732  0.50541671  0.40166437    -0.74900
C102        C  0.52428501  0.36725239  0.63235949     0.93300
O103        O  0.47604773  0.58608883  0.54783807    -0.74700
O104        O  0.49339083  0.39633459  0.63984674    -0.82200
Mg105      Mg  0.46267893  0.59737244  0.47209475     1.58000
C106        C  0.62878074  0.36262543  0.47248367     0.93200
O107        O  0.45004598  0.61882591  0.39809956    -0.80400
H108        H  0.52086496  0.42622061  0.38204443    -0.05800
C109        C  0.57645442  0.47120036  0.56371059     0.88100
O110        O  0.40417154  0.43774822  0.50902463    -0.75000
O111        O  0.52460335  0.56342485  0.45486140    -0.87700
O112        O  0.63183043  0.40205267  0.45522274    -0.80500
C113        C  0.63718296  0.52706316  0.37683764     0.93300
C114        C  0.47002588  0.61560171  0.36009500     0.93200
Mg115      Mg  0.53273464  0.38845417  0.52078073     1.58000
O116        O  0.54489530  0.36563112  0.59456969    -0.80500
O117        O  0.51983653  0.39986384  0.44528088    -0.74700
O118        O  0.59755087  0.54369375  0.37286511    -0.80500
O119        O  0.39817511  0.63433936  0.49137183    -0.82200
O120        O  0.39572615  0.44280100  0.62129499    -0.80600
C121        C  0.52924006  0.43095937  0.41727113     0.87600
O122        O  0.47031628  0.42208978  0.53857050    -0.87700
O123        O  0.56840325  0.45212404  0.52745376    -0.87800
O124        O  0.54568835  0.47797503  0.59282980    -0.74900
Mg125      Mg  0.52423405  0.52543095  0.39274028     1.58000
O126        O  0.64669975  0.49880393  0.40794259    -0.82200
H127        H  0.38516429  0.50050826  0.42459153    -0.06000
O128        O  0.44997903  0.51881323  0.56452448    -0.87500
H129        H  0.47652009  0.55987831  0.61119299    -0.05800
H130        H  0.43248039  0.37533718  0.50750903    -0.06000
C131        C  0.46734787  0.55501826  0.57617861     0.87600
C132        C  0.41898890  0.51330962  0.43053482     0.88200
C133        C  0.43563660  0.41006305  0.51840627     0.88200
H134        H  0.61033438  0.48351326  0.57032546    -0.05900
O135        O  0.59076340  0.54892565  0.48507646    -0.75000
Mg136      Mg  0.47050311  0.45915332  0.60125449     1.58000
H137        H  0.56147259  0.61085608  0.48603518    -0.06000
C138        C  0.36659093  0.62481615  0.51903199     0.93200
O139        O  0.35015859  0.49075125  0.58543730    -0.82200
C140        C  0.35751592  0.46267064  0.61710835     0.93300
O141        O  0.50051206  0.58616222  0.35319279    -0.82200
Mg142      Mg  0.60655965  0.47452838  0.46939893     1.58200
O143        O  0.36354659  0.58569577  0.53705870    -0.80500
O144        O  0.59773180  0.35258813  0.50065823    -0.82200
O145        O  0.48051874  0.00735007  0.92243311    -0.87800
C146        C  0.50198654  0.10306025  0.01828016     0.88200
Mg147      Mg  0.43304093  0.95357712  0.93213892     1.58100
O148        O  0.58780979  0.02197434  0.00842666    -0.87500
O149        O  0.55253037  0.01623754  0.90767835    -0.74900
C150        C  0.47555391  0.86883177  0.13480065     0.93300
O151        O  0.40855089  0.04939103  0.99207818    -0.74700
O152        O  0.44278159  0.87709326  0.10816886    -0.82200
Mg153      Mg  0.45565059  0.07446882  0.93551575     1.58000
C154        C  0.64337496  0.96326453  0.12345673     0.93200
O155        O  0.49682950  0.10729409  0.87810871    -0.80400
H156        H  0.63452967  0.99012946  0.97164193    -0.05800
C157        C  0.49753258  0.99972846  0.11005075     0.88100
O158        O  0.48933388  0.90500420  0.95402103    -0.75000
O159        O  0.51041214  0.08308180  0.98261256    -0.87700
O160        O  0.63737720  0.00151152  0.10440853    -0.80500
C161        C  0.63083005  0.13246269  0.03552412     0.93300
C162        C  0.53494568  0.12677789  0.87190042     0.93200
Mg163      Mg  0.55473479  0.92319361  0.07241629     1.58000
O164        O  0.51432761  0.88755347  0.12972756    -0.80500
O165        O  0.60078793  0.94951969  0.01551668    -0.74700
O166        O  0.60907583  0.12848717  0.99853698    -0.80500
O167        O  0.39698181  0.06525177  0.88588479    -0.82200
O168        O  0.39826800  0.87239196  0.01095356    -0.80600
C169        C  0.60905409  0.98773043  0.99770727     0.87600
O170        O  0.49937721  0.91556167  0.02640468    -0.87700
O171        O  0.53119204  0.99053499  0.08723335    -0.87800
O172        O  0.45896720  0.98271042  0.10151555    -0.74900
Mg173      Mg  0.57744189  0.07131103  0.95630291     1.58000
O174        O  0.62856279  0.10258245  0.06640404    -0.82200
H175        H  0.51131957  0.97376464  0.87275139    -0.06000
O176        O  0.42259169  0.97729943  0.00019465    -0.87500
H177        H  0.37474676  0.00875479  0.03590177    -0.05800
H178        H  0.53292221  0.86822112  0.99210986    -0.06000
C179        C  0.40060210  0.01128284  0.01021244     0.87600
C180        C  0.51422373  0.99841223  0.89952037     0.88200
C181        C  0.50787792  0.89477991  0.99131816     0.88200
H182        H  0.50071349  0.02417344  0.13717952    -0.05900
O183        O  0.52150552  0.09283800  0.05520476    -0.75000
Mg184      Mg  0.43260814  0.92835624  0.05268749     1.58000
H185        H  0.47643010  0.12914253  0.01829861    -0.06000
C186        C  0.36909045  0.03258406  0.88151824     0.93200
O187        O  0.38314009  0.89633624  0.94145051    -0.82200
C188        C  0.37798785  0.86785607  0.97320501     0.93300
O189        O  0.56755698  0.12191448  0.89959873    -0.82200
Mg190      Mg  0.57875446  0.04454687  0.07651990     1.58200
O191        O  0.37513708  0.99513436  0.90184577    -0.80500
O192        O  0.61445331  0.93142073  0.12002437    -0.82200
C193        C  0.47746951  0.68135518  0.25043065    -0.27700
C194        C  0.45566934  0.72167277  0.26210899     0.06000
C195        C  0.43308418  0.72449038  0.30365878     0.25600
C196        C  0.43534454  0.68857396  0.33442290    -0.12100
C197        C  0.46001348  0.64923638  0.32413183    -0.26100
C198        C  0.47941971  0.64529179  0.28084527     0.36400
C199        C  0.45983019  0.76148908  0.23214249     0.06000
F200        F  0.41143026  0.76302235  0.31566750    -0.19900
H201        H  0.41976678  0.69262150  0.36723092     0.15800
F202        F  0.50185525  0.60735770  0.26836221    -0.23600
H203        H  0.49428694  0.67838344  0.21810268     0.17600
C204        C  0.50269713  0.78009760  0.22314317     0.25600
C205        C  0.50725409  0.81635132  0.19317577    -0.12100
C206        C  0.46922853  0.83436939  0.17093175    -0.26200
C207        C  0.42605074  0.81608681  0.18080849     0.36500
C208        C  0.42153789  0.78025690  0.21146086    -0.27800
F209        F  0.54027676  0.76284427  0.24315450    -0.19900
H210        H  0.54089065  0.82929646  0.18627690     0.15800
F211        F  0.38820380  0.83201598  0.16022993    -0.23600
H212        H  0.38825952  0.76623725  0.21806232     0.17600
C213        C  0.56686046  0.26027368  0.69084935    -0.27700
C214        C  0.54442952  0.26296991  0.73239650     0.06000
C215        C  0.51898027  0.30162410  0.74238982     0.25600
C216        C  0.51428186  0.33615222  0.71049377    -0.12100
C217        C  0.53481667  0.33291951  0.66779509    -0.26100
C218        C  0.56214231  0.29480400  0.65866538     0.36400
C219        C  0.54441485  0.22436583  0.76418666     0.06000
F220        F  0.49777463  0.30542136  0.78281903    -0.19900
H221        H  0.49340875  0.36494388  0.71890267     0.15800
F222        F  0.58273084  0.28972109  0.61806608    -0.23600
H223        H  0.58660581  0.23060654  0.68268477     0.17600
C224        C  0.50424089  0.20005307  0.77160223     0.25600
C225        C  0.50219857  0.16701424  0.80521022    -0.12100
C226        C  0.54008211  0.15771050  0.83255424    -0.26200
C227        C  0.58110240  0.18076240  0.82358958     0.36500
C228        C  0.58312394  0.21369139  0.78950351    -0.27800
F229        F  0.46652652  0.20917311  0.74698350    -0.19900
H230        H  0.47025010  0.14982470  0.81077941     0.15800
F231        F  0.61885449  0.17267703  0.84851846    -0.23600
H232        H  0.61441052  0.23209735  0.78402319     0.17600
C233        C  0.80599362  0.26293406  0.02794919    -0.27700
C234        C  0.76185798  0.27753394  0.03792161     0.06000
C235        C  0.75390911  0.32404838  0.04346059     0.25600
C236        C  0.78947847  0.35503493  0.03872210    -0.12100
C237        C  0.83345757  0.34036669  0.02802076    -0.26100
C238        C  0.84142495  0.29388995  0.02288392     0.36400
C239        C  0.72497199  0.24351980  0.04204870     0.06000
F240        F  0.71204498  0.33959362  0.05398196    -0.19900
H241        H  0.78234711  0.39072155  0.04247314     0.15800
F242        F  0.88346126  0.27827157  0.01318657    -0.23600
H243        H  0.81294052  0.22732744  0.02329466     0.17600
C244        C  0.68422394  0.24769035  0.01762772     0.25600
C245        C  0.65278188  0.21217071  0.01725285    -0.12100
C246        C  0.66117905  0.17202841  0.04129054    -0.26200
C247        C  0.70100102  0.16875846  0.06725070     0.36500
C248        C  0.73239101  0.20418085  0.06756730    -0.27800
F249        F  0.67598838  0.28470798  0.99181580    -0.19900
H250        H  0.62240434  0.21551420  0.99696217     0.15800
F251        F  0.71121245  0.13020608  0.08990078    -0.23600
H252        H  0.76343163  0.20026060  0.08672165     0.17600
C253        C  0.19867098  0.74558868  0.98918487    -0.27700
C254        C  0.23503631  0.73568287  0.96068720     0.06000
C255        C  0.23403002  0.69614633  0.93469784     0.25600
C256        C  0.19762417  0.66595996  0.93863702    -0.12100
C257        C  0.16163287  0.67486495  0.96850263    -0.26100
C258        C  0.16214427  0.71576220  0.99302645     0.36400
C259        C  0.27484823  0.76578416  0.96061408     0.06000
F260        F  0.26905480  0.68593744  0.90695888    -0.19900
H261        H  0.19837848  0.63492535  0.91931966     0.15800
F262        F  0.12825688  0.72647958  0.02195890    -0.23600
H263        H  0.19909181  0.77617018  0.00926961     0.17600
C264        C  0.28109613  0.79776414  0.92625482     0.25600
C265        C  0.31611676  0.82956057  0.92949835    -0.12100
C266        C  0.34536713  0.83000951  0.96716332    -0.26200
C267        C  0.33999529  0.79639657  0.00058953     0.36500
C268        C  0.30487249  0.76480909  0.99726377    -0.27800
F269        F  0.25204958  0.79954834  0.89072548    -0.19900
H270        H  0.31914594  0.85495323  0.90330930     0.15800
F271        F  0.36768061  0.79467748  0.03720008    -0.23600
H272        H  0.30032302  0.74015399  0.02395971     0.17600
C273        C  0.18490082  0.44700883  0.76032058    -0.27700
C274        C  0.23045979  0.45924257  0.76561169     0.06000
C275        C  0.24503908  0.47699463  0.80725689     0.25600
C276        C  0.21420034  0.48260617  0.84279426    -0.12100
C277        C  0.16835030  0.47047966  0.83748606    -0.26100
C278        C  0.15414154  0.45239998  0.79564458     0.36400
C279        C  0.26147193  0.45639443  0.72638187     0.06000
F280        F  0.28855573  0.49088353  0.81283751    -0.19900
H281        H  0.22604438  0.49724018  0.87418477     0.15800
F282        F  0.11004093  0.44182344  0.78783135    -0.23600
H283        H  0.17292895  0.43385947  0.72831030     0.17600
C284        C  0.30144048  0.43082281  0.72811982     0.25600
C285        C  0.33125897  0.43057159  0.69131959    -0.12100
C286        C  0.32193614  0.45608070  0.65220634    -0.26200
C287        C  0.28059673  0.47994882  0.64997530     0.36500
C288        C  0.25087890  0.47989058  0.68664075    -0.27800
F289        F  0.31174391  0.40634382  0.76550358    -0.19900
H290        H  0.36249547  0.41170382  0.69419459     0.15800
F291        F  0.26939390  0.50492654  0.61315893    -0.23600
H292        H  0.22001865  0.49950205  0.68453427     0.17600
C293        C  0.75022288  0.52860088  0.18766038    -0.27700
C294        C  0.76349188  0.54854524  0.22868308     0.06000
C295        C  0.80739318  0.56668701  0.23233364     0.25600
C296        C  0.83782046  0.56334205  0.19634348    -0.12100
C297        C  0.82539089  0.54155849  0.15589870    -0.26100
C298        C  0.78069309  0.52502621  0.15162342     0.36400
C299        C  0.73241901  0.54780331  0.26821248     0.06000
F300        F  0.82107161  0.58729254  0.27095703    -0.19900
H301        H  0.87177823  0.57655198  0.20087302     0.15800
F302        F  0.76663558  0.50420490  0.11322970    -0.23600
H303        H  0.71663772  0.51418620  0.18407493     0.17600
C304        C  0.68743114  0.56270387  0.26439211     0.25600
C305        C  0.65758805  0.55830259  0.30081654    -0.12100
C306        C  0.67159541  0.53830230  0.34172627    -0.26200
C307        C  0.71722023  0.52502008  0.34604264     0.36500
C308        C  0.74715583  0.52985285  0.30966978    -0.27800
F309        F  0.67211182  0.58101569  0.22521450    -0.19900
H310        H  0.62282265  0.56894008  0.29619142     0.15800
F311        F  0.73278114  0.50624832  0.38489098    -0.23600
H312        H  0.78161291  0.51794272  0.31338887     0.17600
C313        C  0.73233270  0.30533497  0.42148537    -0.27700
C314        C  0.73670332  0.26769374  0.44988869     0.06000
C315        C  0.70316078  0.25896703  0.48223923     0.25600
C316        C  0.66703638  0.28880548  0.48779866    -0.12100
C317        C  0.66372202  0.32819867  0.46135904    -0.26100
C318        C  0.69615313  0.33544596  0.42702553     0.36400
C319        C  0.77868478  0.24065804  0.45027061     0.06000
F320        F  0.70650843  0.22245289  0.50982258    -0.19900
H321        H  0.64271781  0.28195776  0.51427677     0.15800
F322        F  0.69385507  0.37223992  0.39971878    -0.23600
H323        H  0.75799376  0.31243346  0.39635299     0.17600
C324        C  0.78575940  0.20542479  0.41946734     0.25600
C325        C  0.82240799  0.17593011  0.42538654    -0.12100
C326        C  0.85256352  0.18118450  0.46207586    -0.26200
C327        C  0.84664622  0.21845214  0.49111020     0.36500
C328        C  0.80998158  0.24759413  0.48519857    -0.27800
F329        F  0.75597304  0.19808660  0.38525990    -0.19900
H330        H  0.82600079  0.14781154  0.40231348     0.15800
F331        F  0.87449539  0.22539861  0.52695999    -0.23600
H332        H  0.80487724  0.27473013  0.50916554     0.17600
C333        C  0.25575568  0.68051623  0.55453989    -0.27700
C334        C  0.26157704  0.72479223  0.53837071     0.06000
C335        C  0.30328324  0.73669095  0.51864522     0.25600
C336        C  0.33760317  0.70445958  0.51381571    -0.12100
C337        C  0.33144279  0.65966635  0.52879569    -0.26100
C338        C  0.29017528  0.64830106  0.55005295     0.34400
C339        C  0.22362845  0.75783805  0.54064926     0.06000
F340        F  0.31019342  0.77896899  0.50214060    -0.19900
H341        H  0.36880004  0.71446777  0.49737976     0.15800
F342        F  0.28220614  0.60570459  0.56516358    -0.23600
H343        H  0.22415883  0.67069683  0.57033191     0.17600
C344        C  0.18057527  0.74698849  0.52315877     0.25600
C345        C  0.14584744  0.77916995  0.52292025    -0.12100
C346        C  0.15308826  0.82290936  0.54018346    -0.26200
C347        C  0.19595620  0.83328216  0.55879571     0.36500
C348        C  0.23064790  0.80106989  0.55891957    -0.27800
F349        F  0.17272006  0.70599140  0.50413031    -0.19900
H350        H  0.11358794  0.77018922  0.50787659     0.15800
F351        F  0.20533615  0.87524482  0.57483431    -0.23600
H352        H  0.26340870  0.81017016  0.57276982     0.17600
C353        C  0.26824482  0.00111909  0.80774781    -0.27700
C354        C  0.26389469  0.03954732  0.78055209     0.06000
C355        C  0.29163764  0.07724512  0.78889470     0.25600
C356        C  0.32451319  0.07569684  0.82314091    -0.12100
C357        C  0.33014897  0.03651922  0.84964767    -0.26100
C358        C  0.30075705  0.99945972  0.84203992     0.36400
C359        C  0.23154065  0.03873083  0.74242830     0.06000
F360        F  0.28790792  0.11490516  0.76298577    -0.19900
H361        H  0.34647677  0.10468839  0.82792732     0.15800
F362        F  0.30417094  0.96083629  0.86658034    -0.23600
H363        H  0.24690055  0.97187060  0.80173265     0.17600
C364        C  0.24329089  0.01759267  0.70175294     0.25600
C365        C  0.21118384  0.01261350  0.66726313    -0.12100
C366        C  0.16659963  0.02842424  0.67273078    -0.26200
C367        C  0.15524726  0.05034572  0.71352663     0.36500
C368        C  0.18756696  0.05542180  0.74789742    -0.27800
F369        F  0.28558473  0.00076129  0.69589599    -0.19900
H370        H  0.22107694  0.99553380  0.63652996     0.15800
F371        F  0.11248331  0.06510407  0.72123227    -0.23600
H372        H  0.17789526  0.07117451  0.77941551     0.17600
C373        C  0.81806028  0.93491783  0.26588887    -0.27700
C374        C  0.78016781  0.96271271  0.26085867     0.06000
C375        C  0.77146479  0.99623295  0.29315477     0.25600
C376        C  0.80098371  0.00249467  0.32956166    -0.12100
C377        C  0.83992960  0.97562034  0.33425605    -0.26100
C378        C  0.84797083  0.94136904  0.30202187     0.36400
C379        C  0.75041882  0.95814652  0.22111446     0.06000
F380        F  0.73450704  0.02314219  0.28917664    -0.19900
H381        H  0.79380652  0.02913545  0.35351418     0.15800
F382        F  0.88510520  0.91457743  0.30469905    -0.23600
H383        H  0.82508195  0.90897015  0.24112847     0.17600
C384        C  0.74991254  0.99211623  0.18812165     0.25600
C385        C  0.71683831  0.99181113  0.15440279    -0.12100
C386        C  0.68365604  0.95756058  0.15300594    -0.26200
C387        C  0.68689904  0.92128818  0.18385847     0.36500
C388        C  0.72000622  0.92185263  0.21778425    -0.27800
F389        F  0.78042525  0.02650816  0.18963475    -0.19900
H390        H  0.71602610  0.01962514  0.13061562     0.15800
F391        F  0.65662329  0.88667393  0.18309986    -0.23600
H392        H  0.72054339  0.89509088  0.24276503     0.17600
C393        C  0.05114556  0.76381860  0.31396978    -0.27700
C394        C  0.04175642  0.77277711  0.26840061     0.06000
C395        C  0.03083470  0.81717101  0.25541872     0.25600
C396        C  0.02781086  0.85145613  0.28788843    -0.12100
C397        C  0.03602281  0.84229664  0.33383135    -0.26100
C398        C  0.04861879  0.79804929  0.34637113     0.36400
C399        C  0.03967445  0.73485119  0.23565637     0.06000
F400        F  0.02062717  0.82688444  0.21178037    -0.19900
H401        H  0.01784441  0.88499325  0.27717499     0.15800
F402        F  0.05615954  0.78702520  0.39023767    -0.23600
H403        H  0.05948535  0.72981537  0.32465208     0.17600
C404        C  0.06548563  0.73500495  0.19585307     0.25600
C405        C  0.06170560  0.69929927  0.16496561    -0.12100
C406        C  0.03188489  0.66286538  0.17295745    -0.26200
C407        C  0.00668350  0.66261180  0.21343225     0.36500
C408        C  0.01084294  0.69808926  0.24430902    -0.27800
F409        F  0.09447352  0.76955493  0.18693210    -0.19900
H410        H  0.08148192  0.70074907  0.13424767     0.15800
F411        F  0.97688904  0.62887456  0.22286146    -0.23600
H412        H  0.99051494  0.69742762  0.27471401     0.17600
C413        C  0.97974710  0.19473594  0.74938833    -0.27700
C414        C  0.95362061  0.23253701  0.73760495     0.06000
C415        C  0.93050622  0.23254828  0.69613108     0.25600
C416        C  0.93506655  0.19621686  0.66625710    -0.12100
C417        C  0.96295496  0.15914439  0.67697193    -0.26100
C418        C  0.98446121  0.15838586  0.71958289     0.36400
C419        C  0.95271569  0.27255696  0.76780523     0.06000
F420        F  0.90378684  0.26790073  0.68436029    -0.19900
H421        H  0.91774313  0.19786320  0.63403762     0.15800
F422        F  0.01149256  0.12347191  0.73199579    -0.23600
H423        H  0.99792960  0.19408465  0.78118779     0.17600
C424        C  0.94105894  0.26796985  0.81350079     0.25600
C425        C  0.94460292  0.30489329  0.84271053    -0.12100
C426        C  0.96061094  0.34707022  0.82727353    -0.26200
C427        C  0.97064928  0.35207637  0.78107588     0.36500
C428        C  0.96646475  0.31515336  0.75167744    -0.27800
F429        F  0.92693560  0.22752466  0.83007186    -0.19900
H430        H  0.93664015  0.29979487  0.87803196     0.15800
F431        F  0.98521856  0.39230698  0.76442685    -0.23600
H432        H  0.97566011  0.31938548  0.71654263     0.17600
loop_ 
_geom_bond_atom_site_label_1 
_geom_bond_atom_site_label_2 
_geom_bond_distance 
_geom_bond_site_symmetry_2 
_ccdc_geom_bond_type 
O1           Mg3   2.150   1_545  S
O1           Mg9   2.157       .  S
O1           C36   1.235       .  S
C2           O15   1.236       .  S
C2           O39   1.271       .  A
C2           H41   1.081       .  S
Mg3          O32   2.170       .  S
Mg3          O47   2.288       .  S
Mg3          O43   2.271   1_655  S
Mg3          O14   2.291   1_655  S
O4          Mg46   2.158       .  S
O4          Mg29   2.154   1_455  S
O4           C25   1.235       .  S
O5           C36   1.270       .  A
O5          Mg29   2.301       .  S
C6            O8   1.274       .  A
C6           O20   1.278       .  A
C6          C346   1.492       .  S
O7           C35   1.270       .  A
O7           Mg9   2.299   1_565  S
O8          Mg40   2.272       .  S
Mg9          O15   2.155       .  S
Mg9          O23   2.274       .  S
Mg9          O11   2.310       .  S
C10          O48   1.275   1_545  A
C10          O16   1.277       .  A
C10         C366   1.491       .  S
O11          C18   1.276       .  A
H12          C25   1.081       .  S
C13          O27   1.235       .  S
C13          O28   1.269       .  A
C13          H38   1.081       .  S
O14          C37   1.268       .  A
O15         Mg29   2.152       .  S
O16         Mg46   2.316       .  S
C17          O30   1.273   1_655  A
C17          O22   1.277       .  A
C17         C417   1.491       .  S
C18          O45   1.274       .  A
C18         C326   1.491       .  S
Mg19         O26   2.146       .  S
Mg19         O27   2.162       .  S
Mg19         O20   2.317       .  S
Mg19         O21   2.298   1_565  S
Mg19         O48   2.277       .  S
O21          C25   1.269       .  A
O22         Mg29   2.312       .  S
O23          C42   1.273   1_545  A
O24          C44   1.275       .  A
O24         Mg40   2.307       .  S
O26         Mg40   2.163       .  S
O26          C37   1.234       .  S
O27         Mg46   2.151   1_565  S
O28         Mg40   2.298       .  S
Mg29         O45   2.276       .  S
O30         Mg46   2.271       .  S
H31          C36   1.081       .  S
O32         Mg40   2.151   1_655  S
O32          C35   1.236       .  S
H33          C35   1.081       .  S
H34          C37   1.081       .  S
O39         Mg46   2.304   1_655  S
C42          O47   1.273       .  A
C42         C377   1.486       .  S
O43          C44   1.273       .  A
C44         C397   1.489       .  S
O49         Mg51   2.144   1_455  S
O49         Mg57   2.161       .  S
O49          C84   1.236       .  S
C50          O63   1.235       .  S
C50          O87   1.270       .  A
C50          H89   1.081       .  S
Mg51         O80   2.165       .  S
Mg51         O95   2.293       .  S
Mg51         O91   2.263       .  S
Mg51         O62   2.291   1_556  S
O52         Mg94   2.161       .  S
O52         Mg77   2.165   1_554  S
O52          C73   1.236       .  S
O53          C84   1.270       .  A
O53         Mg77   2.299       .  S
C54          O56   1.272       .  A
C54          O68   1.276       .  A
C54         C297   1.491       .  S
O55          C83   1.268       .  A
O55         Mg57   2.292   1_655  S
O56         Mg88   2.269       .  S
Mg57         O63   2.157       .  S
Mg57         O71   2.292       .  S
Mg57         O59   2.294       .  S
C58          O96   1.272   1_455  A
C58          O64   1.278       .  A
C58         C406   1.492       .  S
O59          C66   1.275       .  A
H60          C73   1.081       .  S
C61          O75   1.234       .  S
C61          O76   1.268       .  A
C61          H86   1.081       .  S
O62          C85   1.268       .  A
O63         Mg77   2.163       .  S
O64         Mg94   2.323       .  S
C65          O78   1.272   1_556  A
C65          O70   1.277       .  A
C65         C257   1.487       .  S
C66          O93   1.275       .  A
C66         C277   1.489       .  S
Mg67         O74   2.141       .  S
Mg67         O75   2.155       .  S
Mg67         O68   2.309       .  S
Mg67         O69   2.305   1_655  S
Mg67         O96   2.260       .  S
O69          C73   1.270       .  A
O70         Mg77   2.313       .  S
O71          C90   1.275   1_455  A
O72          C92   1.273       .  A
O72         Mg88   2.285       .  S
O74         Mg88   2.168       .  S
O74          C85   1.235       .  S
O75         Mg94   2.142   1_655  S
O76         Mg88   2.292       .  S
Mg77         O93   2.289       .  S
O78         Mg94   2.254       .  S
H79          C84   1.081       .  S
O80         Mg88   2.146   1_556  S
O80          C83   1.234       .  S
H81          C83   1.081       .  S
H82          C85   1.081       .  S
O87         Mg94   2.302   1_556  S
C90          O95   1.274       .  A
C90         C426   1.488       .  S
O91          C92   1.272   1_556  A
C92         C237   1.478       .  S
O97         Mg99   2.143       .  S
O97        Mg105   2.161       .  S
O97         C132   1.236       .  S
C98         O111   1.236       .  S
C98         O135   1.270       .  A
C98         H137   1.081       .  S
Mg99        O128   2.158       .  S
Mg99        O143   2.326       .  S
Mg99        O139   2.250       .  S
Mg99        O110   2.306       .  S
O100       Mg142   2.152       .  S
O100       Mg125   2.136       .  S
O100        C121   1.235       .  S
O101        C132   1.270       .  A
O101       Mg125   2.294       .  S
C102        O104   1.276       .  A
C102        O116   1.276       .  A
C102        C217   1.493       .  S
O103        C131   1.270       .  A
O103       Mg105   2.301       .  S
O104       Mg136   2.285       .  S
Mg105       O111   2.152       .  S
Mg105       O119   2.274       .  S
Mg105       O107   2.311       .  S
C106        O144   1.275       .  A
C106        O112   1.276       .  A
C106        C317   1.490       .  S
O107        C114   1.276       .  A
H108        C121   1.081       .  S
C109        O123   1.236       .  S
C109        O124   1.271       .  A
C109        H134   1.081       .  S
O110        C133   1.271       .  A
O111       Mg125   2.158       .  S
O112       Mg142   2.312       .  S
C113        O126   1.275       .  A
C113        O118   1.276       .  A
C113        C306   1.492       .  S
C114        O141   1.272       .  A
C114        C197   1.487       .  S
Mg115       O122   2.164       .  S
Mg115       O123   2.164       .  S
Mg115       O116   2.315       .  S
Mg115       O117   2.293       .  S
Mg115       O144   2.277       .  S
O117        C121   1.269       .  A
O118       Mg125   2.307       .  S
O119        C138   1.273       .  A
O120        C140   1.280       .  A
O120       Mg136   2.336       .  S
O122       Mg136   2.158       .  S
O122        C133   1.236       .  S
O123       Mg142   2.160       .  S
O124       Mg136   2.301       .  S
Mg125       O141   2.257       .  S
O126       Mg142   2.288       .  S
H127        C132   1.081       .  S
O128       Mg136   2.160       .  S
O128        C131   1.235       .  S
H129        C131   1.081       .  S
H130        C133   1.081       .  S
O135       Mg142   2.300       .  S
C138        O143   1.277       .  A
C138        C337   1.494       .  S
O139        C140   1.271       .  A
C140        C286   1.492       .  S
O145       Mg147   2.137   1_545  S
O145       Mg153   2.156       .  S
O145        C180   1.235   1_545  S
C146        O159   1.237   1_554  S
C146        O183   1.272       .  A
C146        H185   1.081       .  S
Mg147       O176   2.159   1_556  S
Mg147       O191   2.290       .  S
Mg147       O187   2.258       .  S
Mg147       O158   2.293       .  S
O148       Mg190   2.143       .  S
O148       Mg173   2.146   1_554  S
O148        C169   1.236   1_544  S
O149        C180   1.269   1_545  A
O149       Mg173   2.294       .  S
C150        O152   1.271       .  A
C150        O164   1.279       .  A
C150        C206   1.489       .  S
O151        C179   1.270   1_556  A
O151       Mg153   2.300       .  S
O152       Mg184   2.256       .  S
Mg153       O159   2.148       .  S
Mg153       O167   2.285       .  S
Mg153       O155   2.304       .  S
C154        O192   1.274       .  A
C154        O160   1.277   1_565  A
C154        C386   1.485       .  S
O155        C162   1.276       .  A
H156        C169   1.081       .  S
C157        O171   1.234       .  S
C157        O172   1.269       .  A
C157        H182   1.086   1_565  S
O158        C181   1.269       .  A
O159       Mg173   2.158       .  S
O160       Mg190   2.304       .  S
C161        O174   1.273       .  A
C161        O166   1.274   1_554  A
C161        C246   1.482       .  S
C162        O189   1.272       .  A
C162        C226   1.489       .  S
Mg163       O170   2.137       .  S
Mg163       O171   2.159       .  S
Mg163       O164   2.327       .  S
Mg163       O165   2.301       .  S
Mg163       O192   2.268       .  S
O165        C169   1.270   1_554  A
O166       Mg173   2.300       .  S
O167        C186   1.274       .  A
O168        C188   1.274   1_554  A
O168       Mg184   2.299       .  S
O170       Mg184   2.156       .  S
O170        C181   1.235   1_554  S
O171       Mg190   2.148   1_565  S
O172       Mg184   2.297       .  S
Mg173       O189   2.268       .  S
O174       Mg190   2.277       .  S
H175        C180   1.081       .  S
O176       Mg184   2.144       .  S
O176        C179   1.236   1_565  S
H177        C179   1.081       .  S
H178        C181   1.081       .  S
O183       Mg190   2.304       .  S
C186        O191   1.274   1_545  A
C186        C357   1.491       .  S
O187        C188   1.271       .  A
C188        C266   1.485       .  S
C193        H203   1.083       .  S
C193        C194   1.402       .  A
C193        C198   1.397       .  A
C194        C199   1.479       .  S
C194        C195   1.404       .  A
C195        C196   1.401       .  A
C195        F200   1.357       .  S
C196        H201   1.083       .  S
C196        C197   1.409       .  A
C197        C198   1.411       .  A
C198        F202   1.357       .  S
C199        C204   1.404       .  A
C199        C208   1.401       .  A
C204        C205   1.398       .  A
C204        F209   1.358       .  S
C205        H210   1.083       .  S
C205        C206   1.407       .  A
C206        C207   1.414       .  A
C207        C208   1.401       .  A
C207        F211   1.357       .  S
C208        H212   1.083       .  S
C213        H223   1.083       .  S
C213        C214   1.401       .  A
C213        C218   1.404       .  A
C214        C219   1.480       .  S
C214        C215   1.403       .  A
C215        C216   1.398       .  A
C215        F220   1.358       .  S
C216        H221   1.083       .  S
C216        C217   1.407       .  A
C217        C218   1.416       .  A
C218        F222   1.357       .  S
C219        C224   1.403       .  A
C219        C228   1.402       .  A
C224        C225   1.396       .  A
C224        F229   1.357       .  S
C225        H230   1.083       .  S
C225        C226   1.407       .  A
C226        C227   1.414       .  A
C227        C228   1.404       .  A
C227        F231   1.357       .  S
C228        H232   1.083       .  S
C233        H243   1.083       .  S
C233        C234   1.406       .  A
C233        C238   1.396       .  A
C234        C239   1.486       .  S
C234        C235   1.407       .  A
C235        C236   1.399       .  A
C235        F240   1.357       .  S
C236        H241   1.083       .  S
C236        C237   1.407       .  A
C237        C238   1.405       .  A
C238        F242   1.357       .  S
C239        C244   1.408       .  A
C239        C248   1.405       .  A
C244        C245   1.400       .  A
C244        F249   1.357   1_554  S
C245        H250   1.083   1_554  S
C245        C246   1.407       .  A
C246        C247   1.407       .  A
C247        C248   1.397       .  A
C247        F251   1.357       .  S
C248        H252   1.083       .  S
C253        H263   1.084   1_556  S
C253        C254   1.399       .  A
C253        C258   1.396       .  A
C254        C259   1.472       .  S
C254        C255   1.402       .  A
C255        C256   1.400       .  A
C255        F260   1.357       .  S
C256        H261   1.083       .  S
C256        C257   1.410       .  A
C257        C258   1.412       .  A
C258        F262   1.357   1_556  S
C259        C264   1.401       .  A
C259        C268   1.400       .  A
C264        C265   1.399       .  A
C264        F269   1.357       .  S
C265        H270   1.083       .  S
C265        C266   1.409       .  A
C266        C267   1.411   1_556  A
C267        C268   1.397   1_554  A
C267        F271   1.358       .  S
C268        H272   1.084   1_556  S
C273        H283   1.083       .  S
C273        C274   1.400       .  A
C273        C278   1.397       .  A
C274        C279   1.484       .  S
C274        C275   1.407       .  A
C275        C276   1.404       .  A
C275        F280   1.357       .  S
C276        H281   1.083       .  S
C276        C277   1.408       .  A
C277        C278   1.413       .  A
C278        F282   1.358       .  S
C279        C284   1.405       .  A
C279        C288   1.402       .  A
C284        C285   1.403       .  A
C284        F289   1.357       .  S
C285        H290   1.083       .  S
C285        C286   1.409       .  A
C286        C287   1.414       .  A
C287        C288   1.398       .  A
C287        F291   1.358       .  S
C288        H292   1.084       .  S
C293        H303   1.083       .  S
C293        C294   1.406       .  A
C293        C298   1.402       .  A
C294        C299   1.489       .  S
C294        C295   1.405       .  A
C295        C296   1.399       .  A
C295        F300   1.357       .  S
C296        H301   1.083       .  S
C296        C297   1.409       .  A
C297        C298   1.411       .  A
C298        F302   1.358       .  S
C299        C304   1.405       .  A
C299        C308   1.406       .  A
C304        C305   1.400       .  A
C304        F309   1.358       .  S
C305        H310   1.083       .  S
C305        C306   1.410       .  A
C306        C307   1.410       .  A
C307        C308   1.402       .  A
C307        F311   1.357       .  S
C308        H312   1.083       .  S
C313        H323   1.083       .  S
C313        C314   1.401       .  A
C313        C318   1.403       .  A
C314        C319   1.478       .  S
C314        C315   1.403       .  A
C315        C316   1.397       .  A
C315        F320   1.358       .  S
C316        H321   1.083       .  S
C316        C317   1.407       .  A
C317        C318   1.414       .  A
C318        F322   1.357       .  S
C319        C324   1.403       .  A
C319        C328   1.401       .  A
C324        C325   1.403       .  A
C324        F329   1.357       .  S
C325        H330   1.083       .  S
C325        C326   1.412       .  A
C326        C327   1.411       .  A
C327        C328   1.397       .  A
C327        F331   1.357       .  S
C328        H332   1.084       .  S
C333        H343   1.083       .  S
C333        C334   1.405       .  A
C333        C338   1.402       .  A
C334        C339   1.491       .  S
C334        C335   1.408       .  A
C335        C336   1.402       .  A
C335        F340   1.358       .  S
C336        H341   1.083       .  S
C336        C337   1.409       .  A
C337        C338   1.412       .  A
C338        F342   1.357       .  S
C339        C344   1.408       .  A
C339        C348   1.404       .  A
C344        C345   1.402       .  A
C344        F349   1.357       .  S
C345        H350   1.083       .  S
C345        C346   1.408       .  A
C346        C347   1.412       .  A
C347        C348   1.402       .  A
C347        F351   1.358       .  S
C348        H352   1.083       .  S
C353        H363   1.084   1_545  S
C353        C354   1.399       .  A
C353        C358   1.397   1_545  A
C354        C359   1.478       .  S
C354        C355   1.404       .  A
C355        C356   1.403       .  A
C355        F360   1.357       .  S
C356        H361   1.083       .  S
C356        C357   1.410       .  A
C357        C358   1.414   1_545  A
C358        F362   1.358       .  S
C359        C364   1.403       .  A
C359        C368   1.400       .  A
C364        C365   1.400       .  A
C364        F369   1.358       .  S
C365        H370   1.083   1_545  S
C365        C366   1.408       .  A
C366        C367   1.414       .  A
C367        C368   1.402       .  A
C367        F371   1.357       .  S
C368        H372   1.083       .  S
C373        H383   1.083       .  S
C373        C374   1.398       .  A
C373        C378   1.399       .  A
C374        C379   1.473       .  S
C374        C375   1.404       .  A
C375        C376   1.397   1_565  A
C375        F380   1.358   1_565  S
C376        H381   1.083       .  S
C376        C377   1.407   1_545  A
C377        C378   1.414       .  A
C378        F382   1.357       .  S
C379        C384   1.401       .  A
C379        C388   1.401       .  A
C384        C385   1.395       .  A
C384        F389   1.358   1_565  S
C385        H390   1.083   1_565  S
C385        C386   1.408       .  A
C386        C387   1.412       .  A
C387        C388   1.400       .  A
C387        F391   1.357       .  S
C388        H392   1.083       .  S
C393        H403   1.083       .  S
C393        C394   1.403       .  A
C393        C398   1.399       .  A
C394        C399   1.485       .  S
C394        C395   1.407       .  A
C395        C396   1.402       .  A
C395        F400   1.357       .  S
C396        H401   1.083       .  S
C396        C397   1.408       .  A
C397        C398   1.411       .  A
C398        F402   1.357       .  S
C399        C404   1.405       .  A
C399        C408   1.403       .  A
C404        C405   1.403       .  A
C404        F409   1.357       .  S
C405        H410   1.083       .  S
C405        C406   1.410       .  A
C406        C407   1.412       .  A
C407        C408   1.398       .  A
C407        F411   1.358   1_455  S
C408        H412   1.084   1_455  S
C413        H423   1.083       .  S
C413        C414   1.404       .  A
C413        C418   1.400       .  A
C414        C419   1.485       .  S
C414        C415   1.404       .  A
C415        C416   1.400       .  A
C415        F420   1.357       .  S
C416        H421   1.083       .  S
C416        C417   1.409       .  A
C417        C418   1.412       .  A
C418        F422   1.358   1_655  S
C419        C424   1.404       .  A
C419        C428   1.406       .  A
C424        C425   1.398       .  A
C424        F429   1.358       .  S
C425        H430   1.083       .  S
C425        C426   1.409       .  A
C426        C427   1.408       .  A
C427        C428   1.403       .  A
C427        F431   1.357       .  S
C428        H432   1.083       .  S
