geometry optimzed in LAMMPS
_audit_creation_date              2020-11-30 
_audit_creation_method            'lammps2cif' 
_symmetry_space_group_name_H-M    'P1' 
_symmetry_Int_Tables_number       1 
_symmetry_cell_setting            triclinic 
loop_ 
_symmetry_equiv_pos_as_xyz 
  x,y,z 
_cell_length_a                    32.59113467 
_cell_length_b                    32.640441186551776 
_cell_length_c                    31.81937946906193 
_cell_angle_alpha                 90.28395597433055 
_cell_angle_beta                  90.32677503172229 
_cell_angle_gamma                 88.8967269437242 
loop_ 
_atom_site_label 
_atom_site_type_symbol 
_atom_site_fract_x 
_atom_site_fract_y 
_atom_site_fract_z 
_atom_site_charge 
C1          C  0.50847911  0.21064624  0.47954774     0.79400
N2          N  0.52503444  0.21852225  0.44150075    -0.78900
C3          C  0.56485865  0.22904537  0.43857999     0.81800
N4          N  0.58833745  0.23063870  0.97381309    -0.78900
C5          C  0.57251632  0.22188294  0.01202508     0.81900
N6          N  0.53241796  0.21133894  0.01481786    -0.80600
Fe7        Fe  0.76321271  0.19331113  0.18523819     1.65800
Fe8        Fe  0.75974183  0.19998210  0.29042842     1.73200
Fe9        Fe  0.71940035  0.27616753  0.23116059     1.54400
O10         O  0.76741223  0.29868516  0.19775767    -0.82500
O11         O  0.70388698  0.22030508  0.31420182    -0.80800
O12         O  0.77591372  0.24694805  0.15248189    -0.85000
O13         O  0.70358449  0.19436796  0.16496961    -0.79900
O14         O  0.74550488  0.29979515  0.28642353    -0.81600
O15         O  0.73161220  0.14660853  0.27589592    -0.84400
C16         C  0.68321562  0.22644552  0.15572780     0.96400
C17         C  0.78004284  0.28440200  0.16294774     1.03800
O18         O  0.74772206  0.22317321  0.23581185    -1.13400
O19         O  0.81677639  0.17638704  0.27189795    -0.75800
O20         O  0.82342266  0.18954908  0.20335594    -0.79300
O21         O  0.68892786  0.26028281  0.17495624    -0.80000
C22         C  0.83785080  0.17746845  0.23833625     0.95300
O23         O  0.75339624  0.13586911  0.21069370    -0.77900
O24         O  0.78864060  0.25162367  0.31053895    -0.83100
C25         C  0.67163141  0.23818566  0.30009126     0.97900
C26         C  0.77350804  0.28754009  0.31174308     1.03800
O27         O  0.67007686  0.25634798  0.26493359    -0.78800
C28         C  0.73854844  0.12323684  0.24497366     1.02100
C29         C  0.83644837  0.44663943  0.99024840     0.79400
N30         N  0.82977817  0.42556520  0.45348935    -0.78900
C31         C  0.82675645  0.38409817  0.45405483     0.81800
N32         N  0.83010263  0.36410491  0.99152608    -0.78900
C33         C  0.83513472  0.38485730  0.02804962     0.81900
N34         N  0.83814189  0.42622390  0.02732222    -0.80600
C35         C  0.72459050  0.94821914  0.25431303     0.79400
N36         N  0.72599520  0.92967501  0.21611435    -0.78900
C37         C  0.72974700  0.88850553  0.21284545     0.81800
N38         N  0.73376427  0.86564390  0.24799195    -0.78900
C39         C  0.73439177  0.88364880  0.28644035     0.81900
N40         N  0.72931465  0.92498939  0.28945420    -0.80600
Fe41       Fe  0.79884559  0.69740604  0.05768636     1.65800
Fe42       Fe  0.80064622  0.69956100  0.45188469     1.73200
Fe43       Fe  0.84306842  0.77558575  0.50830923     1.54400
O44         O  0.79455794  0.80239117  0.03939137    -0.82500
O45         O  0.85733719  0.71526836  0.42786351    -0.80800
O46         O  0.78576934  0.75345566  0.08704762    -0.85000
O47         O  0.85859357  0.69756009  0.07851306    -0.79900
O48         O  0.81926398  0.79793543  0.45170064    -0.81600
O49         O  0.82547564  0.64353068  0.46747432    -0.84400
C50         C  0.87830882  0.72971364  0.08653577     0.96400
C51         C  0.78144431  0.79036915  0.07455280     1.03800
O52         O  0.81408675  0.72390177  0.50575069    -1.13400
O53         O  0.74296906  0.68167927  0.47098246    -0.75800
O54         O  0.73857311  0.69518349  0.03976599    -0.79300
O55         O  0.87185647  0.76246926  0.06587178    -0.80000
C56         C  0.72294025  0.68434362  0.50510663     0.95300
O57         O  0.80895710  0.63815442  0.03506426    -0.77900
O58         O  0.77355745  0.75261509  0.43060515    -0.83100
C59         C  0.89001838  0.73148366  0.44196510     0.97900
C60         C  0.79005475  0.78713277  0.42780367     1.03800
O61         O  0.89191887  0.74985977  0.47713892    -0.78800
C62         C  0.82052345  0.62253748  0.00033599     1.02100
C63         C  0.05422225  0.71921188  0.26087136     0.79400
N64         N  0.03007020  0.72311626  0.22599606    -0.78900
C65         C  0.98944018  0.73272587  0.22988153     0.81800
N66         N  0.97339836  0.73843265  0.26873545    -0.78900
C67         C  0.99729778  0.73420942  0.30348184     0.81900
N68         N  0.03746797  0.72401391  0.29947634    -0.80600
C69         C  0.32534363  0.89621353  0.24729689     0.79400
N70         N  0.31687755  0.91928846  0.28177536    -0.78900
C71         C  0.31117787  0.96024085  0.27803076     0.81800
N72         N  0.31300417  0.97792436  0.23969075    -0.78900
C73         C  0.32198672  0.95517751  0.20495174     0.81900
N74         N  0.32782260  0.91408194  0.20890410    -0.80600
Fe75       Fe  0.27027638  0.14552026  0.04923022     1.65800
Fe76       Fe  0.25584191  0.15494326  0.44533568     1.73200
Fe77       Fe  0.21839630  0.07385159  0.49575693     1.54400
O78         O  0.25292329  0.04749070  0.04449760    -0.82500
O79         O  0.19349073  0.15794269  0.43743194    -0.80800
O80         O  0.30127736  0.09149159  0.05956531    -0.85000
O81         O  0.21950487  0.12658074  0.08348684    -0.79900
O82         O  0.25829680  0.04867631  0.45268251    -0.81600
O83         O  0.25177485  0.21161982  0.47391741    -0.84400
C84         C  0.18482719  0.11147795  0.07403378     0.96400
C85         C  0.28610848  0.05649982  0.06339639     1.03800
O86         O  0.24857773  0.12477861  0.49684822    -1.13400
O87         O  0.31873903  0.15475090  0.45210437    -0.75800
O88         O  0.32335056  0.16636407  0.02132404    -0.79300
O89         O  0.17680196  0.09624057  0.03824190    -0.80000
C90         C  0.33904081  0.16459640  0.48471725     0.95300
O91         O  0.24173807  0.20172802  0.04219894    -0.77900
O92         O  0.26090716  0.10178680  0.40883826    -0.83100
C93         C  0.17216171  0.12707865  0.42911174     0.97900
C94         C  0.26524969  0.06374963  0.41678525     1.03800
O95         O  0.17981178  0.09266971  0.44640615    -0.78800
C96         C  0.24302322  0.22477479  0.01035006     1.02100
C97         C  0.00699101  0.12482635  0.24365995     0.79400
N98         N  0.02697918  0.12505326  0.28123132    -0.78900
C99         C  0.06792107  0.11724399  0.28306989     0.81800
N100        N  0.08886847  0.10969541  0.24710790    -0.78900
C101        C  0.06935266  0.10986446  0.20940728     0.81900
N102        N  0.02829918  0.11770252  0.20766334    -0.80600
C103        C  0.23058317  0.39943900  0.50960950     0.79400
N104        N  0.23684245  0.42368439  0.04385643    -0.78900
C105        C  0.24087169  0.46468984  0.03959235     0.81800
N106        N  0.23871264  0.48128674  0.50059239    -0.78900
C107        C  0.23301060  0.45731992  0.46619028     0.81900
N108        N  0.22958593  0.41629726  0.47073388    -0.80600
Fe109      Fe  0.29644546  0.64574528  0.31430740     1.65800
Fe110      Fe  0.30230860  0.64651028  0.20867875     1.73200
Fe111      Fe  0.34730260  0.56947863  0.26367544     1.54400
O112        O  0.37552420  0.58293654  0.32127071    -0.82500
O113        O  0.27839303  0.59410442  0.18446180    -0.80800
O114        O  0.35507759  0.64624501  0.33764848    -0.85000
O115        O  0.28539828  0.58922373  0.34149402    -0.79900
O116        O  0.39526944  0.59579119  0.23308935    -0.81600
O117        O  0.24319365  0.66397560  0.22698689    -0.84400
C118        C  0.28484358  0.55224219  0.32860421     0.96400
C119        C  0.37799080  0.61510146  0.34383517     1.03800
O120        O  0.31517977  0.62069504  0.26209743    -1.13400
O121        O  0.32465238  0.70166585  0.22733738    -0.75800
O122        O  0.30405595  0.70549891  0.29389952    -0.79300
O123        O  0.30084241  0.54062258  0.29420723    -0.80000
C124        C  0.31685138  0.72181550  0.26040712     0.95300
O125        O  0.23662401  0.64768201  0.29467960    -0.77900
O126        O  0.36021819  0.63215368  0.18496222    -0.83100
C127        C  0.29582773  0.55934476  0.18165570     0.97900
C128        C  0.39330005  0.61554082  0.19888253     1.03800
O129        O  0.32441575  0.54766921  0.20643569    -0.78800
C130        C  0.22194757  0.66078949  0.26024400     1.02100
C131        C  0.55348932  0.64026702  0.51570755     0.79400
N132        N  0.53833833  0.63541178  0.05485370    -0.78900
C133        C  0.49923523  0.62353905  0.06028885     0.81800
N134        N  0.47501539  0.61713690  0.52649959    -0.78900
C135        C  0.48900446  0.62332497  0.48701109     0.81900
N136        N  0.52853292  0.63479262  0.48183983    -0.80600
C137        C  0.39195087  0.62914586  0.41967164    -0.02700
C138        C  0.40663035  0.61587749  0.38014497     0.07000
C139        C  0.44813195  0.60367908  0.37594298    -0.02800
C140        C  0.47464112  0.60421535  0.41116248    -0.02800
C141        C  0.46061455  0.61997813  0.45027024     0.07100
C142        C  0.41902627  0.63315440  0.45391084    -0.03000
Br143      Br  0.39837037  0.65982768  0.50429562    -0.01500
Br144      Br  0.33386906  0.63971284  0.42809333    -0.01600
Br145      Br  0.52937596  0.58104457  0.40542979    -0.01600
Br146      Br  0.46939369  0.58820715  0.32146620    -0.01500
C147        C  0.44629653  0.58079296  0.15458257    -0.02700
C148        C  0.42988601  0.61730763  0.17219140     0.07000
C149        C  0.44382743  0.65550486  0.15838863    -0.02800
C150        C  0.47062818  0.65729814  0.12406786    -0.02800
C151        C  0.48176267  0.62103655  0.10250328     0.07100
C152        C  0.47133349  0.58273429  0.11888194    -0.03000
Br153      Br  0.48992590  0.53317806  0.09105339    -0.01500
Br154      Br  0.43175014  0.52808467  0.17671123    -0.01600
Br155      Br  0.48995379  0.70947340  0.10494935    -0.01600
Br156      Br  0.42516854  0.70526860  0.18578548    -0.01500
C157        C  0.28199732  0.46829117  0.40857261    -0.02700
C158        C  0.24219947  0.47428823  0.42481932     0.07000
C159        C  0.21413167  0.50103048  0.40472684    -0.02800
C160        C  0.22716127  0.52498418  0.37085492    -0.02800
C161        C  0.26803440  0.52139915  0.35681081     0.07100
C162        C  0.29483422  0.49161970  0.37435874    -0.03000
Br163      Br  0.35063307  0.48561078  0.35468353    -0.01500
Br164      Br  0.32036985  0.43085564  0.43566536    -0.01600
Br165      Br  0.18951146  0.56320325  0.34418385    -0.01600
Br166      Br  0.15829797  0.50491812  0.42416401    -0.01500
C167        C  0.23470837  0.48593014  0.11524622    -0.02700
C168        C  0.25450210  0.48935159  0.07601364     0.07000
C169        C  0.28938752  0.51428604  0.07254139    -0.02800
C170        C  0.30318182  0.53657028  0.10754964    -0.02800
C171        C  0.28351676  0.53284168  0.14657307     0.07100
C172        C  0.24969314  0.50715619  0.15058116    -0.03000
Br173      Br  0.22412904  0.50130760  0.20469165    -0.01500
Br174      Br  0.18576461  0.45402131  0.12045585    -0.01600
Br175      Br  0.34885675  0.57285465  0.10169191    -0.01600
Br176      Br  0.32043465  0.51677911  0.02093183    -0.01500
C177        C  0.26535995  0.33488536  0.53328694    -0.02700
C178        C  0.23133680  0.35482410  0.01397861     0.07000
C179        C  0.19952580  0.33156502  0.99633659    -0.02800
C180        C  0.20251591  0.28859772  0.99648343    -0.02800
C181        C  0.23653995  0.26895068  0.01560220     0.07100
C182        C  0.26743343  0.29195636  0.53490200    -0.03000
Br183      Br  0.31455685  0.26477930  0.56026698    -0.01500
Br184      Br  0.31160343  0.36589194  0.55331945    -0.01600
Br185      Br  0.16064226  0.25655178  0.96955150    -0.01600
Br186      Br  0.15191239  0.35850713  0.97187580    -0.01500
C187        C  0.12519178  0.14301836  0.11175918    -0.02700
C188        C  0.15311088  0.11003100  0.10656685     0.07000
C189        C  0.15090689  0.07540094  0.13261344    -0.02800
C190        C  0.12131993  0.07411881  0.16450994    -0.02800
C191        C  0.09432075  0.10779671  0.17094002     0.07100
C192        C  0.09586133  0.14205663  0.14402927    -0.03000
Br193      Br  0.06008503  0.18909336  0.15302243    -0.01500
Br194      Br  0.12839559  0.19008135  0.07552615    -0.01600
Br195      Br  0.11752445  0.02600933  0.19924751    -0.01600
Br196      Br  0.18947127  0.03030672  0.12555578    -0.01500
C197        C  0.14828249  0.15453391  0.35918673    -0.02700
C198        C  0.14075142  0.13011440  0.39510827     0.07000
C199        C  0.10590074  0.10484454  0.39537632    -0.02800
C200        C  0.08174073  0.10057509  0.35879042    -0.02800
C201        C  0.09080349  0.12328071  0.32262458     0.07100
C202        C  0.12269502  0.15176270  0.32370499    -0.03000
Br203      Br  0.13128732  0.18771171  0.27637563    -0.01500
Br204      Br  0.19533354  0.18978472  0.35537367    -0.01600
Br205      Br  0.03818436  0.06133878  0.35722337    -0.01600
Br206      Br  0.09043105  0.07641304  0.44580190    -0.01500
C207        C  0.29478983  0.98485052  0.09257504    -0.02700
C208        C  0.30567680  0.02670563  0.09347717     0.07000
C209        C  0.33190972  0.04034562  0.12650931    -0.02800
C210        C  0.34098264  0.01447396  0.16067561    -0.02800
C211        C  0.32293759  0.97573846  0.16341197     0.07100
C212        C  0.30251297  0.95973187  0.12779882    -0.03000
Br213      Br  0.28297491  0.90430132  0.12692631    -0.01500
Br214      Br  0.27005883  0.96085772  0.04298039    -0.01600
Br215      Br  0.37906060  0.03189893  0.20395411    -0.01600
Br216      Br  0.35496336  0.09464683  0.12818855    -0.01500
C217        C  0.32970653  0.99860032  0.34301215    -0.02700
C218        C  0.29951350  0.98496955  0.31471646     0.07000
C219        C  0.25801105  0.99576132  0.32081338    -0.02800
C220        C  0.24684825  0.02178667  0.35423186    -0.02800
C221        C  0.27708941  0.03601407  0.38231218     0.07100
C222        C  0.31845704  0.02412829  0.37693946    -0.03000
Br223      Br  0.35957105  0.04376885  0.41544510    -0.01500
Br224      Br  0.38633474  0.98254522  0.33482485    -0.01600
Br225      Br  0.19013140  0.03803261  0.36102331    -0.01600
Br226      Br  0.21641769  0.97377167  0.28401081    -0.01500
C227        C  0.35758398  0.82923265  0.26772404    -0.02700
C228        C  0.32421360  0.85163689  0.25059759     0.07000
C229        C  0.28825113  0.83166682  0.23827830    -0.02800
C230        C  0.28670332  0.78895041  0.24021527    -0.02800
C231        C  0.31955973  0.76643315  0.25831908     0.07100
C232        C  0.35479994  0.78655473  0.27266449    -0.03000
Br233      Br  0.39903647  0.75554311  0.29843055    -0.01500
Br234      Br  0.40698553  0.85703241  0.28355671    -0.01600
Br235      Br  0.23981803  0.76165779  0.21677171    -0.01600
Br236      Br  0.24003422  0.86295224  0.22132608    -0.01500
C237        C  0.10839512  0.66975446  0.23527156    -0.02700
C238        C  0.09755692  0.70575508  0.25775589     0.07000
C239        C  0.12765109  0.72640292  0.28134607    -0.02800
C240        C  0.16775837  0.71015525  0.28393486    -0.02800
C241        C  0.17901396  0.67544367  0.25972698     0.07100
C242        C  0.14943097  0.65552231  0.23507393    -0.03000
Br243      Br  0.16464794  0.60706133  0.20348548    -0.01500
Br244      Br  0.06676731  0.63745911  0.20814071    -0.01600
Br245      Br  0.20698994  0.73545009  0.32129104    -0.01600
Br246      Br  0.11462833  0.77791572  0.30896815    -0.01500
C247        C  0.66851282  0.63905456  0.53079302    -0.02700
C248        C  0.67990377  0.67205935  0.50532726     0.07000
C249        C  0.64995753  0.69352966  0.98139927    -0.02800
C250        C  0.60835820  0.68325106  0.98453135    -0.02800
C251        C  0.59703746  0.65028498  0.51029915     0.07100
C252        C  0.62734745  0.62759273  0.53257216    -0.03000
Br253      Br  0.61329752  0.57936529  0.56411992    -0.01500
Br254      Br  0.70957309  0.60858045  0.56255630    -0.01600
Br255      Br  0.56728039  0.71650571  0.95607886    -0.01600
Br256      Br  0.66595643  0.73820563  0.94591932    -0.01500
C257        C  0.94482760  0.75154854  0.12052947    -0.02700
C258        C  0.90779690  0.72964389  0.12246005     0.07000
C259        C  0.89805984  0.70883593  0.15995830    -0.02800
C260        C  0.92574688  0.70831971  0.19399004    -0.02800
C261        C  0.96172311  0.73176633  0.19274191     0.07100
C262        C  0.97078646  0.75387860  0.15608840    -0.03000
Br263      Br  0.01737615  0.78953560  0.15530574    -0.01500
Br264      Br  0.96156199  0.77689792  0.06881055    -0.01600
Br265      Br  0.91474623  0.67322383  0.24128540    -0.01600
Br266      Br  0.84541011  0.68326167  0.16707177    -0.01500
C267        C  0.93835735  0.69417747  0.39466564    -0.02700
C268        C  0.92596308  0.73109218  0.41437202     0.07000
C269        C  0.94315861  0.76855670  0.40191768    -0.02800
C270        C  0.96870467  0.76946139  0.36653554    -0.02800
C271        C  0.97794127  0.73297228  0.34472639     0.07100
C272        C  0.96483304  0.69511913  0.36015585    -0.03000
Br273      Br  0.98142474  0.64474087  0.33250103    -0.01500
Br274      Br  0.91795313  0.64243510  0.41401995    -0.01600
Br275      Br  0.98939986  0.82069175  0.34640051    -0.01600
Br276      Br  0.92863478  0.81932996  0.43010229    -0.01500
C277        C  0.72574658  0.81326313  0.12321848    -0.02700
C278        C  0.76356266  0.82073805  0.10368734     0.07000
C279        C  0.78691303  0.85479273  0.11601852    -0.02800
C280        C  0.77453119  0.87864614  0.15065196    -0.02800
C281        C  0.73812230  0.86927322  0.17202074     0.07100
C282        C  0.71292969  0.83776305  0.15726808    -0.03000
Br283      Br  0.66127682  0.82796645  0.18438661    -0.01500
Br284      Br  0.69160503  0.76946743  0.10340639    -0.01600
Br285      Br  0.81017167  0.92100682  0.17150830    -0.01600
Br286      Br  0.83798087  0.86683895  0.08834915    -0.01500
C287        C  0.78327087  0.83301200  0.31958488    -0.02700
C288        C  0.74839279  0.85943583  0.32327690     0.07000
C289        C  0.72828560  0.86320207  0.36242898    -0.02800
C290        C  0.74267416  0.84050197  0.39730605    -0.02800
C291        C  0.77687157  0.81390546  0.39310007     0.07100
C292        C  0.79702305  0.81016832  0.35429106    -0.03000
Br293      Br  0.84335147  0.77287625  0.34820979    -0.01500
Br294      Br  0.81430068  0.82846524  0.26788713    -0.01600
Br295      Br  0.71554868  0.84523324  0.45087765    -0.01600
Br296      Br  0.67974608  0.89750983  0.36803463    -0.01500
C297        C  0.86066881  0.55774713  0.01390217    -0.02700
C298        C  0.82577336  0.57778369  0.99703405     0.10200
C299        C  0.79482360  0.55512604  0.47700286    -0.02800
C300        C  0.79828024  0.51223337  0.47459389    -0.02800
C301        C  0.83389147  0.49184878  0.99079223     0.07100
C302        C  0.86505584  0.51484250  0.01023372    -0.03000
Br303      Br  0.91418619  0.48773113  0.03092977    -0.01500
Br304      Br  0.90245368  0.58932904  0.04148005    -0.01600
Br305      Br  0.75257702  0.48145593  0.45292159    -0.01600
Br306      Br  0.74696144  0.58263258  0.45366955    -0.01500
C307        C  0.93363099  0.11161076  0.22554919    -0.02700
C308        C  0.96363889  0.13802844  0.24167492     0.07000
C309        C  0.95224753  0.17756951  0.25609161    -0.02800
C310        C  0.91079759  0.19003389  0.25592672    -0.02800
C311        C  0.88089210  0.16370369  0.23988565     0.07100
C312        C  0.89225646  0.12467965  0.22418986    -0.03000
Br313      Br  0.85100225  0.08906740  0.20132674    -0.01500
Br314      Br  0.94895152  0.05719134  0.20663833    -0.01600
Br315      Br  0.89485501  0.24356781  0.27672127    -0.01600
Br316      Br  0.99359268  0.21583418  0.27346162    -0.01500
C317        C  0.70065610  0.01613426  0.22577396    -0.02700
C318        C  0.72348278  0.99366973  0.25634953     0.07000
C319        C  0.74852731  0.01502779  0.28540423    -0.02800
C320        C  0.75159576  0.05781956  0.28271365    -0.02800
C321        C  0.73127798  0.07932959  0.25013063     0.07100
C322        C  0.70552613  0.05861852  0.22200744    -0.03000
Br323      Br  0.67658852  0.08871804  0.17845793    -0.01500
Br324      Br  0.66152128  0.98962637  0.18921762    -0.01600
Br325      Br  0.78645841  0.08661192  0.32206566    -0.01600
Br326      Br  0.78214050  0.98680309  0.32692701    -0.01500
C327        C  0.77449504  0.34824967  0.12051853    -0.02700
C328        C  0.79742316  0.31294260  0.13228030     0.07000
C329        C  0.83515997  0.30383296  0.11249849    -0.02800
C330        C  0.84904482  0.32897728  0.07988751    -0.02800
C331        C  0.82566135  0.36364634  0.06748385     0.07100
C332        C  0.78871268  0.37368140  0.08846466    -0.03000
Br333      Br  0.75482151  0.41979190  0.07054089    -0.01500
Br334      Br  0.72111302  0.35965187  0.14477292    -0.01600
Br335      Br  0.89968643  0.31557115  0.05144225    -0.01600
Br336      Br  0.86786646  0.25696365  0.13003209    -0.01500
C337        C  0.76835323  0.30891626  0.38639185    -0.02700
C338        C  0.78630020  0.31427495  0.34671107     0.07000
C339        C  0.81745448  0.34308894  0.34174774    -0.02800
C340        C  0.83093814  0.36629192  0.37663447    -0.02800
C341        C  0.81249152  0.36127506  0.41640011     0.07100
C342        C  0.78001891  0.33338290  0.42057472    -0.03000
Br343      Br  0.74882109  0.32972681  0.47210924    -0.01500
Br344      Br  0.72877602  0.26657077  0.39499682    -0.01600
Br345      Br  0.87587789  0.40325464  0.37002825    -0.01600
Br346      Br  0.84279764  0.34904682  0.28757932    -0.01500
C347        C  0.58799705  0.24274620  0.08680240    -0.02700
C348        C  0.59971335  0.22175295  0.04968496     0.07000
C349        C  0.63836911  0.20141019  0.04809316    -0.02800
C350        C  0.66554158  0.20332445  0.08254743    -0.02800
C351        C  0.65388380  0.22441162  0.11979777     0.07100
C352        C  0.61471404  0.24360038  0.12187675    -0.03000
Br353      Br  0.59661960  0.26973621  0.17328091    -0.01500
Br354      Br  0.53623439  0.27242376  0.08917661    -0.01600
Br355      Br  0.71980404  0.17859220  0.07685438    -0.01600
Br356      Br  0.65416971  0.16920042  0.99928289    -0.01500
C357        C  0.61769884  0.20072869  0.33747071    -0.02700
C358        C  0.63542483  0.23831230  0.32723888     0.07000
C359        C  0.62413319  0.27424054  0.34940960    -0.02800
C360        C  0.59824786  0.27170008  0.38445986    -0.02800
C361        C  0.58409239  0.23331956  0.39731771     0.07100
C362        C  0.59239088  0.19806203  0.37285271    -0.03000
Br363      Br  0.57255084  0.14541986  0.39004393    -0.01500
Br364      Br  0.62955226  0.15273919  0.30364387    -0.01600
Br365      Br  0.58322163  0.32031150  0.41592806    -0.01600
Br366      Br  0.64705733  0.32615802  0.33424503    -0.01500
C367        C  0.45423223  0.15983237  0.99775504    -0.02700
C368        C  0.46504640  0.19908186  0.48178830     0.07000
C369        C  0.43436454  0.22550350  0.46503549    -0.02800
C370        C  0.39325997  0.21316056  0.46370729    -0.02800
C371        C  0.38249974  0.17511333  0.48069314     0.07100
C372        C  0.41289793  0.14825233  0.99753028    -0.03000
Br373      Br  0.39794534  0.09531298  0.01856525    -0.01500
Br374      Br  0.49595554  0.12205790  0.01818849    -0.01600
Br375      Br  0.35159906  0.24863199  0.43920641    -0.01600
Br376      Br  0.44818907  0.27974767  0.44639627    -0.01500
C377        C  0.50852720  0.20980293  0.97961697     0.79400
N378        N  0.52503184  0.21778173  0.94157502    -0.78900
C379        C  0.56482532  0.22837966  0.93864088     0.81800
N380        N  0.58834788  0.23131942  0.47376938    -0.78900
C381        C  0.57248885  0.22265129  0.51198662     0.81900
N382        N  0.53236446  0.21218354  0.51475674    -0.80600
Fe383      Fe  0.76301897  0.19378081  0.68536061     1.65800
Fe384      Fe  0.75966772  0.20041584  0.79055918     1.73200
Fe385      Fe  0.71919430  0.27659270  0.73134308     1.54400
O386        O  0.76718738  0.29917263  0.69791802    -0.82500
O387        O  0.70378242  0.22062036  0.81435026    -0.80800
O388        O  0.77564699  0.24745115  0.65261998    -0.85000
O389        O  0.70335403  0.19480452  0.66518079    -0.79900
O390        O  0.74525921  0.30023221  0.78662797    -0.81600
O391        O  0.73163890  0.14697400  0.77604450    -0.84400
C392        C  0.68299449  0.22688012  0.65591487     0.96400
C393        C  0.77979487  0.28490454  0.66308732     1.03800
O394        O  0.74757310  0.22361684  0.73596131    -1.13400
O395        O  0.81673681  0.17694003  0.77197505    -0.75800
O396        O  0.82326188  0.19003425  0.70340124    -0.79300
O397        O  0.68871500  0.26072242  0.67513175    -0.80000
C398        C  0.83775772  0.17800790  0.73837530     0.95300
O399        O  0.75328006  0.13631390  0.71078447    -0.77900
O400        O  0.78847144  0.25210452  0.81068799    -0.83100
C401        C  0.67149382  0.23844391  0.80024015     0.97900
C402        C  0.77327951  0.28799511  0.81193585     1.03800
O403        O  0.66991413  0.25667259  0.76511779    -0.78800
C404        C  0.73853167  0.12363130  0.74508893     1.02100
C405        C  0.83614545  0.44674095  0.48986472     0.79400
N406        N  0.83008177  0.42551131  0.95384854    -0.78900
C407        C  0.82709604  0.38404504  0.95433959     0.81800
N408        N  0.82969382  0.36423225  0.49129368    -0.78900
C409        C  0.83467371  0.38504609  0.52778903     0.81900
N410        N  0.83776431  0.42639607  0.52697770    -0.80600
C411        C  0.72507952  0.94853768  0.75422252     0.79400
N412        N  0.72661428  0.93001619  0.71601552    -0.78900
C413        C  0.73035926  0.88884617  0.71273732     0.81800
N414        N  0.73426284  0.86596430  0.74788795    -0.78900
C415        C  0.73480386  0.88395027  0.78635578     0.81900
N416        N  0.72970938  0.92529088  0.78936734    -0.80600
Fe417      Fe  0.79900236  0.69759028  0.55764108     1.65800
Fe418      Fe  0.80047509  0.69955151  0.95190212     1.73200
Fe419      Fe  0.84284050  0.77554033  0.00847255     1.54400
O420        O  0.79481335  0.80257918  0.53915527    -0.82500
O421        O  0.85716647  0.71530300  0.92793729    -0.80800
O422        O  0.78599412  0.75372961  0.58690782    -0.85000
O423        O  0.85877070  0.69771812  0.57839411    -0.79900
O424        O  0.81897058  0.79800875  0.95191954    -0.81600
O425        O  0.82527749  0.64346963  0.96743372    -0.84400
C426        C  0.87848940  0.72987868  0.58638098     0.96400
C427        C  0.78171505  0.79063511  0.57435443     1.03800
O428        O  0.81391698  0.72381690  0.00582063    -1.13400
O429        O  0.74277896  0.68167496  0.97093751    -0.75800
O430        O  0.73872790  0.69542366  0.53975575    -0.79300
O431        O  0.87202214  0.76262676  0.56572547    -0.80000
C432        C  0.72276650  0.68424464  0.00507626     0.95300
O433        O  0.80901756  0.63826979  0.53507402    -0.77900
O434        O  0.77340812  0.75263613  0.93060814    -0.83100
C435        C  0.88980519  0.73165297  0.94196883     0.97900
C436        C  0.78985709  0.78718942  0.92790117     1.03800
O437        O  0.89171736  0.75000080  0.97716274    -0.78800
C438        C  0.82061127  0.62261706  0.50036408     1.02100
C439        C  0.05416410  0.71971085  0.76097233     0.79400
N440        N  0.03011087  0.72350102  0.72602209    -0.78900
C441        C  0.98947940  0.73312944  0.72974712     0.81800
N442        N  0.97331653  0.73895419  0.76853137    -0.78900
C443        C  0.99710902  0.73485355  0.80336788     0.81900
N444        N  0.03730292  0.72464562  0.79951895    -0.80600
C445        C  0.32527077  0.89621888  0.74724601     0.79400
N446        N  0.31681202  0.91936635  0.78167669    -0.78900
C447        C  0.31119288  0.96032275  0.77785257     0.81800
N448        N  0.31309780  0.97793729  0.73948559    -0.78900
C449        C  0.32205809  0.95510945  0.70479680     0.81900
N450        N  0.32781350  0.91401410  0.70882410    -0.80600
Fe451      Fe  0.27047819  0.14542315  0.54925095     1.65800
Fe452      Fe  0.25584853  0.15504607  0.94530114     1.73200
Fe453      Fe  0.21847550  0.07384055  0.99553952     1.54400
O454        O  0.25284237  0.04755827  0.54471608    -0.82500
O455        O  0.19351956  0.15811405  0.93744254    -0.80800
O456        O  0.30149198  0.09135382  0.55938022    -0.85000
O457        O  0.21981414  0.12645172  0.58367003    -0.79900
O458        O  0.25847751  0.04882554  0.95245515    -0.81600
O459        O  0.25187965  0.21174589  0.97388015    -0.84400
C460        C  0.18502128  0.11158422  0.57426190     0.96400
C461        C  0.28618974  0.05643690  0.56336771     1.03800
O462        O  0.24853262  0.12483326  0.99678011    -1.13400
O463        O  0.31870081  0.15466587  0.95214308    -0.75800
O464        O  0.32347034  0.16637441  0.52127829    -0.79300
O465        O  0.17683375  0.09648767  0.53844648    -0.80000
C466        C  0.33897700  0.16444527  0.98478827     0.95300
O467        O  0.24191118  0.20162200  0.54230330    -0.77900
O468        O  0.26085586  0.10197540  0.90867186    -0.83100
C469        C  0.17217170  0.12728291  0.92906390     0.97900
C470        C  0.26533616  0.06394648  0.91656241     1.03800
O471        O  0.17990120  0.09280357  0.94620113    -0.78800
C472        C  0.24303563  0.22464717  0.51042111     1.02100
C473        C  0.00693753  0.12547691  0.74366331     0.79400
N474        N  0.02687447  0.12571055  0.78126010    -0.78900
C475        C  0.06781084  0.11789655  0.78314626     0.81800
N476        N  0.08881350  0.11036789  0.74722155    -0.78900
C477        C  0.06934611  0.11048919  0.70949560     0.81900
N478        N  0.02828612  0.11830837  0.70769521    -0.80600
C479        C  0.23054360  0.39958727  0.00969594     0.79400
N480        N  0.23677247  0.42355085  0.54378473    -0.78900
C481        C  0.24078567  0.46455841  0.53951847     0.81800
N482        N  0.23873292  0.48143393  0.00067096    -0.78900
C483        C  0.23290302  0.45748216  0.96627418     0.81900
N484        N  0.22944146  0.41645818  0.97082450    -0.80600
Fe485      Fe  0.29630418  0.64576208  0.81420571     1.65800
Fe486      Fe  0.30212241  0.64658245  0.70855750     1.73200
Fe487      Fe  0.34706591  0.56947329  0.76351358     1.54400
O488        O  0.37534383  0.58284773  0.82108982    -0.82500
O489        O  0.27817910  0.59420862  0.68428848    -0.80800
O490        O  0.35494133  0.64614851  0.83754238    -0.85000
O491        O  0.28515547  0.58923362  0.84134401    -0.79900
O492        O  0.39503160  0.59579281  0.73292593    -0.81600
O493        O  0.24302375  0.66408538  0.72688618    -0.84400
C494        C  0.28460287  0.55224514  0.82847038     0.96400
C495        C  0.37783897  0.61498636  0.84368296     1.03800
O496        O  0.31497819  0.62071732  0.76196850    -1.13400
O497        O  0.32449624  0.70170698  0.72724296    -0.75800
O498        O  0.30402866  0.70550661  0.79384971    -0.79300
O499        O  0.30060741  0.54061661  0.79407524    -0.80000
C500        C  0.31677627  0.72183327  0.76034470     0.95300
O501        O  0.23647611  0.64785667  0.79460043    -0.77900
O502        O  0.36002732  0.63223453  0.68482543    -0.83100
C503        C  0.29557211  0.55942701  0.68149623     0.97900
C504        C  0.39309462  0.61560247  0.69875354     1.03800
O505        O  0.32413446  0.54771608  0.70628603    -0.78800
C506        C  0.22180218  0.66098120  0.76016909     1.02100
C507        C  0.55333868  0.64015424  0.01556151     0.79400
N508        N  0.53844625  0.63563652  0.55500322    -0.78900
C509        C  0.49933555  0.62379026  0.56043745     0.81800
N510        N  0.47489758  0.61693784  0.02635023    -0.78900
C511        C  0.48885541  0.62321206  0.98686327     0.81900
N512        N  0.52836641  0.63475056  0.98169464    -0.80600
C513        C  0.39175914  0.62882348  0.91954877    -0.02700
C514        C  0.40647758  0.61570943  0.87999018     0.07000
C515        C  0.44800997  0.60364574  0.87575100    -0.02800
C516        C  0.47453816  0.60423551  0.91095672    -0.02800
C517        C  0.46046387  0.61984679  0.95011521     0.07100
C518        C  0.41881762  0.63282958  0.95380258    -0.03000
Br519      Br  0.39802984  0.65923178  0.00427597    -0.01500
Br520      Br  0.33364196  0.63918182  0.92796861    -0.01600
Br521      Br  0.52938440  0.58136321  0.90510922    -0.01600
Br522      Br  0.46926394  0.58824580  0.82124861    -0.01500
C523        C  0.44608272  0.58089600  0.65443695    -0.02700
C524        C  0.42971248  0.61739355  0.67211208     0.07000
C525        C  0.44381257  0.65559988  0.65849797    -0.02800
C526        C  0.47081865  0.65742000  0.62434322    -0.02800
C527        C  0.48185945  0.62120688  0.60264630     0.07100
C528        C  0.47122011  0.58288380  0.61882023    -0.03000
Br529      Br  0.48967284  0.53336578  0.59082545    -0.01500
Br530      Br  0.43135641  0.52815940  0.67635949    -0.01600
Br531      Br  0.49061394  0.70956447  0.60566565    -0.01600
Br532      Br  0.42507625  0.70534405  0.68587955    -0.01500
C533        C  0.28181790  0.46840138  0.90856846    -0.02700
C534        C  0.24204605  0.47443192  0.92486961     0.07000
C535        C  0.21394653  0.50111858  0.90473898    -0.02800
C536        C  0.22694335  0.52502965  0.87081311    -0.02800
C537        C  0.26779596  0.52141017  0.85670714     0.07100
C538        C  0.29459668  0.49162958  0.87425457    -0.03000
Br539      Br  0.35031678  0.48544861  0.85440186    -0.01500
Br540      Br  0.32023424  0.43104339  0.93570535    -0.01600
Br541      Br  0.18927359  0.56322383  0.84413178    -0.01600
Br542      Br  0.15810438  0.50495158  0.92415423    -0.01500
C543        C  0.23459330  0.48581912  0.61517163    -0.02700
C544        C  0.25437223  0.48925200  0.57593196     0.07000
C545        C  0.28918923  0.51427950  0.57242401    -0.02800
C546        C  0.30289774  0.53667599  0.60738785    -0.02800
C547        C  0.28325761  0.53292531  0.64641960     0.07100
C548        C  0.24952610  0.50712885  0.65047658    -0.03000
Br549      Br  0.22401518  0.50125100  0.70460993    -0.01500
Br550      Br  0.18574803  0.45377180  0.62043846    -0.01600
Br551      Br  0.34842859  0.57313301  0.60145999    -0.01600
Br552      Br  0.32029684  0.51672481  0.52084564    -0.01500
C553        C  0.26551132  0.33502277  0.03306330    -0.02700
C554        C  0.23134488  0.35467920  0.51389840     0.07000
C555        C  0.19969669  0.33141226  0.49594575    -0.02800
C556        C  0.20266269  0.28844947  0.49617380    -0.02800
C557        C  0.23649754  0.26881146  0.51564926     0.07100
C558        C  0.26761948  0.29209006  0.03461031    -0.03000
Br559      Br  0.31490984  0.26489646  0.05962256    -0.01500
Br560      Br  0.31184353  0.36604103  0.05284724    -0.01600
Br561      Br  0.16103026  0.25639533  0.46883732    -0.01600
Br562      Br  0.15237009  0.35831809  0.47086186    -0.01500
C563        C  0.12512879  0.14308391  0.61158389    -0.02700
C564        C  0.15334612  0.11028189  0.60684671     0.07000
C565        C  0.15140133  0.07593935  0.63331378    -0.02800
C566        C  0.12167594  0.07470613  0.66507587    -0.02800
C567        C  0.09437615  0.10823037  0.67106788     0.07100
C568        C  0.09572024  0.14222730  0.64378790    -0.03000
Br569      Br  0.05956289  0.18908538  0.65215623    -0.01500
Br570      Br  0.12811893  0.18983304  0.57489791    -0.01600
Br571      Br  0.11805567  0.02682177  0.70017302    -0.01600
Br572      Br  0.19049998  0.03119294  0.62702070    -0.01500
C573        C  0.14769595  0.15549316  0.85959622    -0.02700
C574        C  0.14060948  0.13046652  0.89519836     0.07000
C575        C  0.10604944  0.10478958  0.89522429    -0.02800
C576        C  0.08186556  0.10067127  0.85864383    -0.02800
C577        C  0.09062676  0.12384798  0.82273036     0.07100
C578        C  0.12216687  0.15269320  0.82406690    -0.03000
Br579      Br  0.13039662  0.18899305  0.77694266    -0.01500
Br580      Br  0.19393088  0.19185511  0.85629997    -0.01600
Br581      Br  0.03870889  0.06101245  0.85667497    -0.01600
Br582      Br  0.09094206  0.07561602  0.94532131    -0.01500
C583        C  0.29471798  0.98477307  0.59249463    -0.02700
C584        C  0.30577793  0.02658260  0.59335010     0.07000
C585        C  0.33217927  0.04013138  0.62627168    -0.02800
C586        C  0.34125009  0.01424610  0.66042148    -0.02800
C587        C  0.32306490  0.97558744  0.66322777     0.07100
C588        C  0.30249362  0.95963196  0.62768387    -0.03000
Br589      Br  0.28283415  0.90424988  0.62686514    -0.01500
Br590      Br  0.26958408  0.96088916  0.54305122    -0.01600
Br591      Br  0.37947647  0.03155330  0.70360523    -0.01600
Br592      Br  0.35541748  0.09434740  0.62784875    -0.01500
C593        C  0.32985844  0.99925483  0.84241561    -0.02700
C594        C  0.29957568  0.98514388  0.81448724     0.07000
C595        C  0.25803045  0.99557518  0.82087360    -0.02800
C596        C  0.24688334  0.02166840  0.85424659    -0.02800
C597        C  0.27719283  0.03627521  0.88203490     0.07100
C598        C  0.31863295  0.02482434  0.87631921    -0.03000
Br599      Br  0.35986985  0.04511596  0.91430799    -0.01500
Br600      Br  0.38656443  0.98373916  0.83378234    -0.01600
Br601      Br  0.19010898  0.03759560  0.86130266    -0.01600
Br602      Br  0.21638227  0.97304531  0.78450089    -0.01500
C603        C  0.35740588  0.82926900  0.76794695    -0.02700
C604        C  0.32411927  0.85165012  0.75061733     0.07000
C605        C  0.28823870  0.83165682  0.73808613    -0.02800
C606        C  0.28671948  0.78894045  0.73997661    -0.02800
C607        C  0.31948796  0.76644545  0.75827138     0.07100
C608        C  0.35462260  0.78658825  0.77285836    -0.03000
Br609      Br  0.39873351  0.75559726  0.79887334    -0.01500
Br610      Br  0.40670051  0.85709771  0.78408545    -0.01600
Br611      Br  0.23998383  0.76162190  0.71623559    -0.01600
Br612      Br  0.24006249  0.86290177  0.72094800    -0.01500
C613        C  0.10818984  0.67002499  0.73556457    -0.02700
C614        C  0.09746143  0.70610806  0.75796150     0.07000
C615        C  0.12764838  0.72679783  0.78137543    -0.02800
C616        C  0.16775216  0.71051329  0.78386599    -0.02800
C617        C  0.17890104  0.67573996  0.75969220     0.07100
C618        C  0.14922616  0.65581570  0.73516376    -0.03000
Br619      Br  0.16434219  0.60746426  0.70335125    -0.01500
Br620      Br  0.06641263  0.63756137  0.70890044    -0.01600
Br621      Br  0.20714114  0.73587297  0.82099191    -0.01600
Br622      Br  0.11476216  0.77841476  0.80884745    -0.01500
C623        C  0.66837758  0.63870183  0.03033940    -0.02700
C624        C  0.67972206  0.67199913  0.00525903     0.07000
C625        C  0.65019406  0.69325325  0.48109130    -0.02800
C626        C  0.60859178  0.68300076  0.48425418    -0.02800
C627        C  0.59686768  0.65020657  0.01015423     0.07100
C628        C  0.62721235  0.62723454  0.03206504    -0.03000
Br629      Br  0.61317590  0.57865867  0.06304249    -0.01500
Br630      Br  0.70948965  0.60789881  0.06169267    -0.01600
Br631      Br  0.56761221  0.71588801  0.45521302    -0.01600
Br632      Br  0.66626426  0.73744543  0.44501060    -0.01500
C633        C  0.94507670  0.75161625  0.62025289    -0.02700
C634        C  0.90797708  0.72983881  0.62227160     0.07000
C635        C  0.89816891  0.70917084  0.65981661    -0.02800
C636        C  0.92586351  0.70863557  0.69382458    -0.02800
C637        C  0.96187960  0.73201631  0.69253482     0.07100
C638        C  0.97106125  0.75394285  0.65579021    -0.03000
Br639      Br  0.01790687  0.78926279  0.65479527    -0.01500
Br640      Br  0.96180347  0.77686554  0.56847414    -0.01600
Br641      Br  0.91485521  0.67351895  0.74109015    -0.01600
Br642      Br  0.84538053  0.68390262  0.66703772    -0.01500
C643        C  0.93819245  0.69460522  0.89451528    -0.02700
C644        C  0.92566430  0.73145783  0.91425391     0.07000
C645        C  0.94257018  0.76902397  0.90168824    -0.02800
C646        C  0.96808153  0.77004696  0.86627837    -0.02800
C647        C  0.97758270  0.73357826  0.84453805     0.07100
C648        C  0.96460488  0.69566858  0.85995771    -0.03000
Br649      Br  0.98121337  0.64536031  0.83217635    -0.01500
Br650      Br  0.91804806  0.64276581  0.91390022    -0.01600
Br651      Br  0.98832414  0.82140893  0.84598922    -0.01600
Br652      Br  0.92768537  0.81975036  0.92977542    -0.01500
C653        C  0.72601885  0.81386302  0.62288422    -0.02700
C654        C  0.76394707  0.82109001  0.60347560     0.07000
C655        C  0.78750292  0.85495935  0.61592889    -0.02800
C656        C  0.77527078  0.87875363  0.65066293    -0.02800
C657        C  0.73872595  0.86962197  0.67189941     0.07100
C658        C  0.71327539  0.83841840  0.65692751    -0.03000
Br659      Br  0.66132670  0.82919404  0.68367513    -0.01500
Br660      Br  0.69162401  0.77034913  0.60289024    -0.01600
Br661      Br  0.81122916  0.92070148  0.67181011    -0.01600
Br662      Br  0.83857129  0.86686750  0.58820281    -0.01500
C663        C  0.78330521  0.83297539  0.81958603    -0.02700
C664        C  0.74864670  0.85969399  0.82325523     0.07000
C665        C  0.72861901  0.86368849  0.86244274    -0.02800
C666        C  0.74289447  0.84096300  0.89736413    -0.02800
C667        C  0.77678297  0.81397087  0.89313293     0.07100
C668        C  0.79679421  0.80994435  0.85426975    -0.03000
Br669      Br  0.84257212  0.77200046  0.84806702    -0.01500
Br670      Br  0.81449906  0.82836415  0.76799610    -0.01600
Br671      Br  0.71601835  0.84618890  0.95102654    -0.01600
Br672      Br  0.68033077  0.89835485  0.86806674    -0.01500
C673        C  0.86077096  0.55773749  0.51345147    -0.02700
C674        C  0.82572594  0.57785447  0.49701492     0.10200
C675        C  0.79504463  0.55495826  0.97686246    -0.02800
C676        C  0.79851916  0.51205367  0.97471751    -0.02800
C677        C  0.83372659  0.49194513  0.49036788     0.07100
C678        C  0.86506642  0.51483866  0.50962781    -0.03000
Br679      Br  0.91430161  0.48757776  0.52985538    -0.01500
Br680      Br  0.90288161  0.58919799  0.54063796    -0.01600
Br681      Br  0.75287467  0.48116695  0.95307605    -0.01600
Br682      Br  0.74736683  0.58235370  0.95299248    -0.01500
C683        C  0.93355049  0.11210539  0.72584171    -0.02700
C684        C  0.96358583  0.13866958  0.74163496     0.07000
C685        C  0.95221389  0.17831494  0.75575831    -0.02800
C686        C  0.91076398  0.19078845  0.75553528    -0.02800
C687        C  0.88082008  0.16429173  0.73987480     0.07100
C688        C  0.89215736  0.12512248  0.72454318    -0.03000
Br689      Br  0.85084334  0.08924339  0.70226907    -0.01500
Br690      Br  0.94887617  0.05756270  0.70732103    -0.01600
Br691      Br  0.89486299  0.24454249  0.77574448    -0.01600
Br692      Br  0.99358075  0.21664085  0.77291927    -0.01500
C693        C  0.70097880  0.01641888  0.72571289    -0.02700
C694        C  0.72383008  0.99398886  0.75629656     0.07000
C695        C  0.74872650  0.01539644  0.78544324    -0.02800
C696        C  0.75166872  0.05820501  0.78281273    -0.02800
C697        C  0.73133707  0.07969840  0.75022262     0.07100
C698        C  0.70568963  0.05893450  0.72203395    -0.03000
Br699      Br  0.67666312  0.08900293  0.67852067    -0.01500
Br700      Br  0.66202006  0.98981583  0.68902921    -0.01600
Br701      Br  0.78639607  0.08704122  0.82225659    -0.01600
Br702      Br  0.78229907  0.98721827  0.82703065    -0.01500
C703        C  0.77442251  0.34889439  0.62079111    -0.02700
C704        C  0.79719641  0.31343124  0.63239076     0.07000
C705        C  0.83475394  0.30410187  0.61234135    -0.02800
C706        C  0.84854751  0.32911737  0.57958315    -0.02800
C707        C  0.82527815  0.36389982  0.56729665     0.07100
C708        C  0.78855788  0.37419884  0.58857863    -0.03000
Br709      Br  0.75482442  0.42050904  0.57088707    -0.01500
Br710      Br  0.72133625  0.36073145  0.64552070    -0.01600
Br711      Br  0.89892219  0.31538629  0.55078667    -0.01600
Br712      Br  0.86738573  0.25713272  0.62973930    -0.01500
C713        C  0.76809672  0.30942613  0.88658441    -0.02700
C714        C  0.78608588  0.31472147  0.84690794     0.07000
C715        C  0.81744198  0.34332823  0.84199817    -0.02800
C716        C  0.83116494  0.36628919  0.87694725    -0.02800
C717        C  0.81268055  0.36134185  0.91669037     0.07100
C718        C  0.77997804  0.33371884  0.92082246    -0.03000
Br719      Br  0.74884805  0.33016685  0.97240893    -0.01500
Br720      Br  0.72818441  0.26738811  0.89511637    -0.01600
Br721      Br  0.87654916  0.40273871  0.87051416    -0.01600
Br722      Br  0.84266083  0.34940586  0.78779194    -0.01500
C723        C  0.58785732  0.24325821  0.58688232    -0.02700
C724        C  0.59967425  0.22245644  0.54967971     0.07000
C725        C  0.63836678  0.20215905  0.54809347    -0.02800
C726        C  0.66542664  0.20387569  0.58266197    -0.02800
C727        C  0.65369624  0.22485635  0.61994919     0.07100
C728        C  0.61450942  0.24400354  0.62201496    -0.03000
Br729      Br  0.59628835  0.26988103  0.67350701    -0.01500
Br730      Br  0.53604502  0.27284469  0.58931707    -0.01600
Br731      Br  0.71961477  0.17892688  0.57713160    -0.01600
Br732      Br  0.65442056  0.17030194  0.49912607    -0.01500
C733        C  0.61756659  0.20071974  0.83732599    -0.02700
C734        C  0.63526093  0.23838327  0.82733456     0.07000
C735        C  0.62391381  0.27417803  0.84969857    -0.02800
C736        C  0.59808322  0.27139788  0.88476298    -0.02800
C737        C  0.58396405  0.23292575  0.89737489     0.07100
C738        C  0.59220531  0.19783624  0.87264349    -0.03000
Br739      Br  0.57215869  0.14512251  0.88934475    -0.01500
Br740      Br  0.62958730  0.15289985  0.80330676    -0.01600
Br741      Br  0.58306387  0.31980224  0.91657141    -0.01600
Br742      Br  0.64669014  0.32623028  0.83477294    -0.01500
C743        C  0.45432227  0.16054790  0.49778280    -0.02700
C744        C  0.46508023  0.19837119  0.98187075     0.07000
C745        C  0.43450019  0.22494910  0.96519355    -0.02800
C746        C  0.39336579  0.21275580  0.96381500    -0.02800
C747        C  0.38246405  0.17476004  0.98079703     0.07100
C748        C  0.41304242  0.14877727  0.49750388    -0.03000
Br749      Br  0.39831609  0.09580244  0.51860803    -0.01500
Br750      Br  0.49614889  0.12303406  0.51849823    -0.01600
Br751      Br  0.35187078  0.24832184  0.93916514    -0.01600
Br752      Br  0.44850444  0.27919517  0.94671039    -0.01500
loop_ 
_geom_bond_atom_site_label_1 
_geom_bond_atom_site_label_2 
_geom_bond_distance 
_geom_bond_site_symmetry_2 
_ccdc_geom_bond_type 
C1            N2   1.356       .  A
C1          N382   1.362       .  A
C1          C368   1.474       .  S
N2            C3   1.353       .  A
C3          N380   1.355       .  A
C3          C361   1.467       .  S
N4            C5   1.357   1_556  A
N4          C379   1.355       .  A
C5            N6   1.361       .  A
C5          C348   1.486       .  S
N6          C377   1.362   1_554  A
Fe7          O23   2.077       .  S
Fe7          O13   2.044       .  S
Fe7          O20   2.044       .  S
Fe7          O12   2.091       .  S
Fe7          O18   1.941       .  S
Fe8          O11   2.071       .  S
Fe8          O15   2.034       .  S
Fe8          O19   2.085       .  S
Fe8          O24   2.045       .  S
Fe8          O18   1.934       .  S
Fe9          O27   2.055       .  S
Fe9          O14   2.099       .  S
Fe9          O21   2.108       .  S
Fe9          O10   2.047       .  S
Fe9          O18   1.951       .  S
O10          C17   1.267       .  A
O11          C25   1.273       .  A
O12          C17   1.275       .  A
O13          C16   1.264       .  A
O14          C26   1.274       .  A
O15          C28   1.261       .  A
C16         C351   1.488       .  S
C16          O21   1.276       .  A
C17         C328   1.475       .  S
O19          C22   1.274       .  A
O20          C22   1.268       .  A
C22         C311   1.465       .  S
O23          C28   1.270       .  A
O24          C26   1.264       .  A
C25         C358   1.466       .  S
C25          O27   1.269       .  A
C26         C338   1.474       .  S
C28         C321   1.467       .  S
C29          N34   1.358   1_556  A
C29         N406   1.362       .  A
C29         C301   1.476       .  S
N30          C31   1.359       .  A
N30         C405   1.362       .  A
C31         N408   1.356       .  A
C31         C341   1.485       .  S
N32          C33   1.353   1_556  A
N32         C407   1.355       .  A
C33          N34   1.356       .  A
C33         C331   1.473       .  S
C35          N36   1.356       .  A
C35          N40   1.360       .  A
C35         C318   1.484       .  S
N36          C37   1.351       .  A
C37          N38   1.352       .  A
C37         C281   1.465       .  S
N38          C39   1.355       .  A
C39          N40   1.359       .  A
C39         C288   1.482       .  S
Fe41         O57   2.081       .  S
Fe41         O47   2.053       .  S
Fe41         O54   2.045       .  S
Fe41         O46   2.088       .  S
Fe41        O428   1.936       .  S
Fe42         O45   2.078       .  S
Fe42         O49   2.048       .  S
Fe42         O53   2.074       .  S
Fe42         O58   2.045       .  S
Fe42         O52   1.937       .  S
Fe43         O61   2.045       .  S
Fe43         O48   2.087       .  S
Fe43        O431   2.093       .  S
Fe43        O420   2.042       .  S
Fe43         O52   1.950       .  S
O44        Fe419   2.042       .  S
O44          C51   1.267       .  A
O45          C59   1.277       .  A
O46          C51   1.276       .  A
O47          C50   1.265       .  A
O48          C60   1.269       .  A
O49         C438   1.265       .  A
C50         C258   1.489       .  S
C50          O55   1.271       .  A
C51         C278   1.468       .  S
O52        Fe417   1.935       .  S
O53          C56   1.272       .  A
O54         C432   1.268       .  A
O55        Fe419   2.094       .  S
C56         C248   1.466       .  S
C56         O430   1.268       .  A
O57          C62   1.271       .  A
O58          C60   1.261       .  A
C59         C268   1.468       .  S
C59          O61   1.269       .  A
C60         C291   1.469       .  S
C62         C298   1.471   1_554  S
C62         O425   1.265   1_554  A
C63          N64   1.362       .  A
C63          N68   1.354       .  A
C63         C238   1.475       .  S
N64          C65   1.361   1_455  A
C65          N66   1.356       .  A
C65         C261   1.484       .  S
N66          C67   1.355       .  A
C67          N68   1.351   1_655  A
C67         C271   1.460       .  S
C69          N70   1.354       .  A
C69          N74   1.360       .  A
C69         C228   1.460       .  S
N70          C71   1.352       .  A
C71          N72   1.354       .  A
C71         C218   1.464       .  S
N72          C73   1.359       .  A
C73          N74   1.358       .  A
C73         C211   1.486       .  S
Fe75         O91   2.054       .  S
Fe75         O81   2.092       .  S
Fe75         O88   2.077       .  S
Fe75         O80   2.043       .  S
Fe75        O462   1.933   1_554  S
Fe76         O79   2.047       .  S
Fe76         O83   2.060       .  S
Fe76         O87   2.060       .  S
Fe76         O92   2.087       .  S
Fe76         O86   1.934       .  S
Fe77         O95   2.093       .  S
Fe77         O82   2.053       .  S
Fe77        O465   2.049       .  S
Fe77        O454   2.093       .  S
Fe77         O86   1.948       .  S
O78        Fe453   2.094   1_554  S
O78          C85   1.273       .  A
O79          C93   1.261       .  A
O80          C85   1.260       .  A
O81          C84   1.276       .  A
O82          C94   1.269       .  A
O83         C472   1.267       .  A
C84         C188   1.469       .  S
C84          O89   1.268       .  A
C85         C208   1.499       .  S
O86        Fe451   1.933       .  S
O87          C90   1.271       .  A
O88         C466   1.273   1_554  A
O89        Fe453   2.049   1_554  S
C90         C371   1.470       .  S
C90         O464   1.272       .  A
O91          C96   1.266       .  A
O92          C94   1.273       .  A
C93         C198   1.488       .  S
C93          O95   1.273       .  A
C94         C221   1.467       .  S
C96         C181   1.462       .  S
C96         O459   1.267   1_554  A
C97          N98   1.358       .  A
C97         N102   1.360       .  A
C97         C308   1.470   1_455  S
N98          C99   1.355       .  A
C99         N100   1.355       .  A
C99         C201   1.474       .  S
N100        C101   1.355       .  A
C101        N102   1.358       .  A
C101        C191   1.474       .  S
C103        N108   1.356       .  A
C103        N480   1.356       .  A
C103        C554   1.468       .  S
N104        C105   1.355       .  A
N104        C479   1.356       .  A
C105        N482   1.357       .  A
C105        C168   1.479       .  S
N106        C107   1.356       .  A
N106        C481   1.357       .  A
C107        N108   1.354       .  A
C107        C158   1.465       .  S
Fe109       O125   2.044       .  S
Fe109       O115   2.080       .  S
Fe109       O122   2.079       .  S
Fe109       O114   2.047       .  S
Fe109       O120   1.944       .  S
Fe110       O113   2.039       .  S
Fe110       O117   2.084       .  S
Fe110       O121   2.039       .  S
Fe110       O126   2.081       .  S
Fe110       O120   1.941       .  S
Fe111       O129   2.091       .  S
Fe111       O116   2.051       .  S
Fe111       O123   2.050       .  S
Fe111       O112   2.094       .  S
Fe111       O120   1.956       .  S
O112        C119   1.273       .  A
O113        C127   1.262       .  A
O114        C119   1.265       .  A
O115        C118   1.273       .  A
O116        C128   1.268       .  A
O117        C130   1.274       .  A
C118        C161   1.468       .  S
C118        O123   1.268       .  A
C119        C138   1.482       .  S
O121        C124   1.263       .  A
O122        C124   1.270       .  A
C124        C231   1.463       .  S
O125        C130   1.266       .  A
O126        C128   1.276       .  A
C127        C171   1.468       .  S
C127        O129   1.271       .  A
C128        C148   1.470       .  S
C130        C241   1.470       .  S
C131        N136   1.360       .  A
C131        N508   1.356       .  A
C131        C251   1.474       .  S
N132        C133   1.351       .  A
N132        C507   1.356       .  A
C133        N510   1.355       .  A
C133        C151   1.465       .  S
N134        C135   1.356       .  A
N134        C509   1.355       .  A
C135        N136   1.360       .  A
C135        C141   1.492       .  S
C137        C138   1.411       .  A
C137        C142   1.405       .  A
C137       Br144   1.937       .  S
C138        C139   1.409       .  A
C139        C140   1.411       .  A
C139       Br146   1.932       .  S
C140        C141   1.419       .  A
C140       Br145   1.933       .  S
C141        C142   1.419       .  A
C142       Br143   1.938       .  S
C147        C148   1.412       .  A
C147        C152   1.405       .  A
C147       Br154   1.931       .  S
C148        C149   1.408       .  A
C149        C150   1.404       .  A
C149       Br156   1.929       .  S
C150        C151   1.408       .  A
C150       Br155   1.930       .  S
C151        C152   1.405       .  A
C152       Br153   1.929       .  S
C157        C158   1.409       .  A
C157        C162   1.402       .  A
C157       Br164   1.934       .  S
C158        C159   1.406       .  A
C159        C160   1.407       .  A
C159       Br166   1.927       .  S
C160        C161   1.410       .  A
C160       Br165   1.929       .  S
C161        C162   1.409       .  A
C162       Br163   1.933       .  S
C167        C168   1.414       .  A
C167        C172   1.408       .  A
C167       Br174   1.930       .  S
C168        C169   1.416       .  A
C169        C170   1.404       .  A
C169       Br176   1.937       .  S
C170        C171   1.407       .  A
C170       Br175   1.930       .  S
C171        C172   1.404       .  A
C172       Br173   1.929       .  S
C177        C182   1.403       .  A
C177        C554   1.413       .  A
C177       Br184   1.935       .  S
C178        C479   1.468       .  S
C178        C179   1.409   1_554  A
C178        C553   1.413       .  A
C179        C180   1.404       .  A
C179       Br186   1.931       .  S
C180        C181   1.407   1_556  A
C180       Br185   1.930       .  S
C181        C558   1.407       .  A
C182        C557   1.407       .  A
C182       Br183   1.933       .  S
C187        C188   1.406       .  A
C187        C192   1.408       .  A
C187       Br194   1.930       .  S
C188        C189   1.408       .  A
C189        C190   1.405       .  A
C189       Br196   1.930       .  S
C190        C191   1.410       .  A
C190       Br195   1.931       .  S
C191        C192   1.414       .  A
C192       Br193   1.931       .  S
C197        C198   1.422       .  A
C197        C202   1.403       .  A
C197       Br204   1.939       .  S
C198        C199   1.417       .  A
C199        C200   1.410       .  A
C199       Br206   1.932       .  S
C200        C201   1.408       .  A
C200       Br205   1.930       .  S
C201        C202   1.408       .  A
C202       Br203   1.939       .  S
C207        C208   1.418   1_565  A
C207        C212   1.411       .  A
C207       Br214   1.937       .  S
C208        C209   1.426       .  A
C209        C210   1.407       .  A
C209       Br216   1.939       .  S
C210        C211   1.408   1_545  A
C210       Br215   1.939       .  S
C211        C212   1.414       .  A
C212       Br213   1.930       .  S
C217        C218   1.407       .  A
C217        C222   1.406   1_565  A
C217       Br224   1.928       .  S
C218        C219   1.405       .  A
C219        C220   1.403   1_565  A
C219       Br226   1.933       .  S
C220        C221   1.410       .  A
C220       Br225   1.926       .  S
C221        C222   1.407       .  A
C222       Br223   1.927       .  S
C227        C228   1.408       .  A
C227        C232   1.407       .  A
C227       Br234   1.927       .  S
C228        C229   1.405       .  A
C229        C230   1.398       .  A
C229       Br236   1.933       .  S
C230        C231   1.409       .  A
C230       Br235   1.928       .  S
C231        C232   1.407       .  A
C232       Br233   1.927       .  S
C237        C238   1.413       .  A
C237        C242   1.407       .  A
C237       Br244   1.931       .  S
C238        C239   1.411       .  A
C239        C240   1.403       .  A
C239       Br246   1.934       .  S
C240        C241   1.411       .  A
C240       Br245   1.935       .  S
C241        C242   1.406       .  A
C242       Br243   1.928       .  S
C247        C248   1.408       .  A
C247        C252   1.401       .  A
C247       Br254   1.935       .  S
C248        C625   1.408       .  A
C249        C250   1.407       .  A
C249        C624   1.408   1_556  A
C249       Br256   1.930       .  S
C250        C627   1.413   1_556  A
C250       Br255   1.931       .  S
C251        C252   1.413       .  A
C251        C626   1.413       .  A
C252       Br253   1.935       .  S
C257        C258   1.416       .  A
C257        C262   1.412       .  A
C257       Br264   1.932       .  S
C258        C259   1.416       .  A
C259        C260   1.406       .  A
C259       Br266   1.937       .  S
C260        C261   1.413       .  A
C260       Br265   1.935       .  S
C261        C262   1.410       .  A
C262       Br263   1.931   1_655  S
C267        C268   1.409       .  A
C267        C272   1.401       .  A
C267       Br274   1.932       .  S
C268        C269   1.414       .  A
C269        C270   1.405       .  A
C269       Br276   1.933       .  S
C270        C271   1.404       .  A
C270       Br275   1.929       .  S
C271        C272   1.407       .  A
C272       Br273   1.931       .  S
C277        C278   1.409       .  A
C277        C282   1.404       .  A
C277       Br284   1.930       .  S
C278        C279   1.412       .  A
C279        C280   1.403       .  A
C279       Br286   1.935       .  S
C280        C281   1.410       .  A
C280       Br285   1.935       .  S
C281        C282   1.406       .  A
C282       Br283   1.929       .  S
C287        C288   1.419       .  A
C287        C292   1.402       .  A
C287       Br294   1.939       .  S
C288        C289   1.415       .  A
C289        C290   1.410       .  A
C289       Br296   1.929       .  S
C290        C291   1.406       .  A
C290       Br295   1.929       .  S
C291        C292   1.406       .  A
C292       Br293   1.931       .  S
C297        C298   1.406   1_554  A
C297        C302   1.409       .  A
C297       Br304   1.928       .  S
C298        C675   1.409       .  A
C299        C300   1.404       .  A
C299        C674   1.410       .  A
C299       Br306   1.931       .  S
C300        C677   1.411       .  A
C300       Br305   1.935       .  S
C301        C302   1.413   1_556  A
C301        C676   1.412       .  A
C302       Br303   1.929       .  S
C307        C308   1.409       .  A
C307        C312   1.407       .  A
C307       Br314   1.930       .  S
C308        C309   1.411       .  A
C309        C310   1.403       .  A
C309       Br316   1.931       .  S
C310        C311   1.404       .  A
C310       Br315   1.928       .  S
C311        C312   1.410       .  A
C312       Br313   1.931       .  S
C317        C318   1.420   1_545  A
C317        C322   1.405       .  A
C317       Br324   1.935   1_545  S
C318        C319   1.419   1_565  A
C319        C320   1.405       .  A
C319       Br326   1.937   1_545  S
C320        C321   1.410       .  A
C320       Br325   1.938       .  S
C321        C322   1.403       .  A
C322       Br323   1.933       .  S
C327        C328   1.412       .  A
C327        C332   1.405       .  A
C327       Br334   1.936       .  S
C328        C329   1.411       .  A
C329        C330   1.408       .  A
C329       Br336   1.930       .  S
C330        C331   1.409       .  A
C330       Br335   1.929       .  S
C331        C332   1.412       .  A
C332       Br333   1.936       .  S
C337        C338   1.408       .  A
C337        C342   1.401       .  A
C337       Br344   1.930       .  S
C338        C339   1.407       .  A
C339        C340   1.413       .  A
C339       Br346   1.928       .  S
C340        C341   1.416       .  A
C340       Br345   1.928       .  S
C341        C342   1.416       .  A
C342       Br343   1.940       .  S
C347        C348   1.413       .  A
C347        C352   1.412       .  A
C347       Br354   1.931       .  S
C348        C349   1.414       .  A
C349        C350   1.407       .  A
C349       Br356   1.938   1_554  S
C350        C351   1.418       .  A
C350       Br355   1.939       .  S
C351        C352   1.413       .  A
C352       Br353   1.931       .  S
C357        C358   1.406       .  A
C357        C362   1.403       .  A
C357       Br364   1.930       .  S
C358        C359   1.409       .  A
C359        C360   1.406       .  A
C359       Br366   1.930       .  S
C360        C361   1.407       .  A
C360       Br365   1.929       .  S
C361        C362   1.409       .  A
C362       Br363   1.930       .  S
C367        C372   1.406       .  A
C367        C744   1.410       .  A
C367       Br374   1.930   1_556  S
C368        C369   1.412       .  A
C368        C743   1.410       .  A
C369        C370   1.407       .  A
C369       Br376   1.932       .  S
C370        C371   1.408       .  A
C370       Br375   1.931       .  S
C371        C748   1.408       .  A
C372        C747   1.408       .  A
C372       Br373   1.928   1_556  S
C377        N378   1.356       .  A
C377        C744   1.473       .  S
N378        C379   1.353       .  A
C379        C737   1.466       .  S
N380        C381   1.357       .  A
C381        N382   1.361       .  A
C381        C724   1.487       .  S
Fe383       O399   2.077       .  S
Fe383       O389   2.044       .  S
Fe383       O396   2.044       .  S
Fe383       O388   2.091       .  S
Fe383       O394   1.941       .  S
Fe384       O387   2.071       .  S
Fe384       O391   2.034       .  S
Fe384       O395   2.086       .  S
Fe384       O400   2.045       .  S
Fe384       O394   1.934       .  S
Fe385       O403   2.055       .  S
Fe385       O390   2.099       .  S
Fe385       O397   2.108       .  S
Fe385       O386   2.047       .  S
Fe385       O394   1.951       .  S
O386        C393   1.268       .  A
O387        C401   1.273       .  A
O388        C393   1.275       .  A
O389        C392   1.264       .  A
O390        C402   1.274       .  A
O391        C404   1.261       .  A
C392        C727   1.488       .  S
C392        O397   1.276       .  A
C393        C704   1.476       .  S
O395        C398   1.274       .  A
O396        C398   1.268       .  A
C398        C687   1.465       .  S
O399        C404   1.270       .  A
O400        C402   1.264       .  A
C401        C734   1.466       .  S
C401        O403   1.269       .  A
C402        C714   1.474       .  S
C404        C697   1.468       .  S
C405        N410   1.358       .  A
C405        C677   1.476       .  S
N406        C407   1.359       .  A
C407        C717   1.484       .  S
N408        C409   1.353       .  A
C409        N410   1.356       .  A
C409        C707   1.474       .  S
C411        N412   1.356       .  A
C411        N416   1.361       .  A
C411        C694   1.484       .  S
N412        C413   1.351       .  A
C413        N414   1.352       .  A
C413        C657   1.465       .  S
N414        C415   1.355       .  A
C415        N416   1.359       .  A
C415        C664   1.483       .  S
Fe417       O433   2.082       .  S
Fe417       O423   2.053       .  S
Fe417       O430   2.045       .  S
Fe417       O422   2.089       .  S
Fe418       O421   2.078       .  S
Fe418       O425   2.048       .  S
Fe418       O429   2.074       .  S
Fe418       O434   2.046       .  S
Fe418       O428   1.938   1_556  S
Fe419       O437   2.045   1_554  S
Fe419       O424   2.087   1_554  S
Fe419       O428   1.951       .  S
O420        C427   1.267       .  A
O421        C435   1.277       .  A
O422        C427   1.276       .  A
O423        C426   1.265       .  A
O424        C436   1.269       .  A
C426        C634   1.488       .  S
C426        O431   1.271       .  A
C427        C654   1.469       .  S
O429        C432   1.272   1_556  A
C432        C624   1.466       .  S
O433        C438   1.271       .  A
O434        C436   1.262       .  A
C435        C644   1.468       .  S
C435        O437   1.269       .  A
C436        C667   1.470       .  S
C438        C674   1.471       .  S
C439        N440   1.362       .  A
C439        N444   1.354       .  A
C439        C614   1.475       .  S
N440        C441   1.361   1_455  A
C441        N442   1.356       .  A
C441        C637   1.484       .  S
N442        C443   1.355       .  A
C443        N444   1.352   1_655  A
C443        C647   1.461       .  S
C445        N446   1.354       .  A
C445        N450   1.360       .  A
C445        C604   1.460       .  S
N446        C447   1.352       .  A
C447        N448   1.354       .  A
C447        C594   1.464       .  S
N448        C449   1.359       .  A
C449        N450   1.357       .  A
C449        C587   1.486       .  S
Fe451       O467   2.053       .  S
Fe451       O457   2.092       .  S
Fe451       O464   2.076       .  S
Fe451       O456   2.043       .  S
Fe452       O455   2.046       .  S
Fe452       O459   2.060       .  S
Fe452       O463   2.059       .  S
Fe452       O468   2.087       .  S
Fe452       O462   1.934       .  S
Fe453       O471   2.094       .  S
Fe453       O458   2.053       .  S
Fe453       O462   1.948       .  S
O454        C461   1.273       .  A
O455        C469   1.261       .  A
O456        C461   1.260       .  A
O457        C460   1.275       .  A
O458        C470   1.269       .  A
C460        C564   1.469       .  S
C460        O465   1.268       .  A
C461        C584   1.499       .  S
O463        C466   1.271       .  A
C466        C747   1.469       .  S
O467        C472   1.267       .  A
O468        C470   1.273       .  A
C469        C574   1.488       .  S
C469        O471   1.273       .  A
C470        C597   1.468       .  S
C472        C557   1.462       .  S
C473        N474   1.358       .  A
C473        N478   1.360       .  A
C473        C684   1.470   1_455  S
N474        C475   1.355       .  A
C475        N476   1.355       .  A
C475        C577   1.473       .  S
N476        C477   1.355       .  A
C477        N478   1.358       .  A
C477        C567   1.475       .  S
C479        N484   1.356   1_554  A
N480        C481   1.355       .  A
C481        C544   1.479       .  S
N482        C483   1.356   1_554  A
C483        N484   1.354       .  A
C483        C534   1.466       .  S
Fe485       O501   2.044       .  S
Fe485       O491   2.080       .  S
Fe485       O498   2.078       .  S
Fe485       O490   2.047       .  S
Fe485       O496   1.944       .  S
Fe486       O489   2.039       .  S
Fe486       O493   2.084       .  S
Fe486       O497   2.039       .  S
Fe486       O502   2.081       .  S
Fe486       O496   1.941       .  S
Fe487       O505   2.091       .  S
Fe487       O492   2.051       .  S
Fe487       O499   2.051       .  S
Fe487       O488   2.094       .  S
Fe487       O496   1.956       .  S
O488        C495   1.272       .  A
O489        C503   1.262       .  A
O490        C495   1.265       .  A
O491        C494   1.273       .  A
O492        C504   1.268       .  A
O493        C506   1.274       .  A
C494        C537   1.468       .  S
C494        O499   1.268       .  A
C495        C514   1.481       .  S
O497        C500   1.263       .  A
O498        C500   1.270       .  A
C500        C607   1.462       .  S
O501        C506   1.266       .  A
O502        C504   1.276       .  A
C503        C547   1.468       .  S
C503        O505   1.271       .  A
C504        C524   1.470       .  S
C506        C617   1.470       .  S
C507        N512   1.360   1_554  A
C507        C627   1.473       .  S
N508        C509   1.351       .  A
C509        C527   1.465       .  S
N510        C511   1.357   1_554  A
C511        N512   1.360       .  A
C511        C517   1.492       .  S
C513        C514   1.411       .  A
C513        C518   1.405       .  A
C513       Br520   1.938       .  S
C514        C515   1.409       .  A
C515        C516   1.411       .  A
C515       Br522   1.932       .  S
C516        C517   1.419       .  A
C516       Br521   1.933       .  S
C517        C518   1.419       .  A
C518       Br519   1.938   1_556  S
C523        C524   1.412       .  A
C523        C528   1.405       .  A
C523       Br530   1.931       .  S
C524        C525   1.408       .  A
C525        C526   1.405       .  A
C525       Br532   1.929       .  S
C526        C527   1.408       .  A
C526       Br531   1.930       .  S
C527        C528   1.405       .  A
C528       Br529   1.929       .  S
C533        C534   1.409       .  A
C533        C538   1.402       .  A
C533       Br540   1.934       .  S
C534        C535   1.406       .  A
C535        C536   1.407       .  A
C535       Br542   1.927       .  S
C536        C537   1.410       .  A
C536       Br541   1.929       .  S
C537        C538   1.410       .  A
C538       Br539   1.933       .  S
C543        C544   1.414       .  A
C543        C548   1.408       .  A
C543       Br550   1.930       .  S
C544        C545   1.416       .  A
C545        C546   1.404       .  A
C545       Br552   1.937       .  S
C546        C547   1.407       .  A
C546       Br551   1.931       .  S
C547        C548   1.404       .  A
C548       Br549   1.929       .  S
C553        C558   1.403       .  A
C553       Br560   1.935       .  S
C554        C555   1.409       .  A
C555        C556   1.404       .  A
C555       Br562   1.931       .  S
C556        C557   1.407       .  A
C556       Br561   1.930       .  S
C558       Br559   1.933       .  S
C563        C564   1.406       .  A
C563        C568   1.408       .  A
C563       Br570   1.930       .  S
C564        C565   1.408       .  A
C565        C566   1.405       .  A
C565       Br572   1.930       .  S
C566        C567   1.410       .  A
C566       Br571   1.931       .  S
C567        C568   1.414       .  A
C568       Br569   1.931       .  S
C573        C574   1.422       .  A
C573        C578   1.404       .  A
C573       Br580   1.940       .  S
C574        C575   1.417       .  A
C575        C576   1.409       .  A
C575       Br582   1.932       .  S
C576        C577   1.407       .  A
C576       Br581   1.930       .  S
C577        C578   1.408       .  A
C578       Br579   1.939       .  S
C583        C584   1.418   1_565  A
C583        C588   1.410       .  A
C583       Br590   1.937       .  S
C584        C585   1.426       .  A
C585        C586   1.406       .  A
C585       Br592   1.939       .  S
C586        C587   1.408   1_545  A
C586       Br591   1.939       .  S
C587        C588   1.414       .  A
C588       Br589   1.929       .  S
C593        C594   1.407       .  A
C593        C598   1.406   1_565  A
C593       Br600   1.928       .  S
C594        C595   1.405       .  A
C595        C596   1.403   1_565  A
C595       Br602   1.933       .  S
C596        C597   1.410       .  A
C596       Br601   1.926       .  S
C597        C598   1.407       .  A
C598       Br599   1.927       .  S
C603        C604   1.408       .  A
C603        C608   1.407       .  A
C603       Br610   1.927       .  S
C604        C605   1.405       .  A
C605        C606   1.398       .  A
C605       Br612   1.933       .  S
C606        C607   1.409       .  A
C606       Br611   1.928       .  S
C607        C608   1.407       .  A
C608       Br609   1.927       .  S
C613        C614   1.413       .  A
C613        C618   1.407       .  A
C613       Br620   1.931       .  S
C614        C615   1.411       .  A
C615        C616   1.403       .  A
C615       Br622   1.934       .  S
C616        C617   1.411       .  A
C616       Br621   1.935       .  S
C617        C618   1.406       .  A
C618       Br619   1.928       .  S
C623        C624   1.408       .  A
C623        C628   1.401       .  A
C623       Br630   1.935       .  S
C625        C626   1.407       .  A
C625       Br632   1.930       .  S
C626       Br631   1.931       .  S
C627        C628   1.412       .  A
C628       Br629   1.935       .  S
C633        C634   1.416       .  A
C633        C638   1.411       .  A
C633       Br640   1.932       .  S
C634        C635   1.416       .  A
C635        C636   1.405       .  A
C635       Br642   1.938       .  S
C636        C637   1.413       .  A
C636       Br641   1.935       .  S
C637        C638   1.410       .  A
C638       Br639   1.931   1_655  S
C643        C644   1.409       .  A
C643        C648   1.401       .  A
C643       Br650   1.932       .  S
C644        C645   1.414       .  A
C645        C646   1.405       .  A
C645       Br652   1.933       .  S
C646        C647   1.404       .  A
C646       Br651   1.929       .  S
C647        C648   1.407       .  A
C648       Br649   1.931       .  S
C653        C654   1.409       .  A
C653        C658   1.404       .  A
C653       Br660   1.929       .  S
C654        C655   1.412       .  A
C655        C656   1.403       .  A
C655       Br662   1.935       .  S
C656        C657   1.410       .  A
C656       Br661   1.935       .  S
C657        C658   1.406       .  A
C658       Br659   1.929       .  S
C663        C664   1.419       .  A
C663        C668   1.402       .  A
C663       Br670   1.939       .  S
C664        C665   1.415       .  A
C665        C666   1.411       .  A
C665       Br672   1.929       .  S
C666        C667   1.406       .  A
C666       Br671   1.929       .  S
C667        C668   1.406       .  A
C668       Br669   1.931       .  S
C673        C674   1.406       .  A
C673        C678   1.409       .  A
C673       Br680   1.928       .  S
C675        C676   1.404       .  A
C675       Br682   1.932       .  S
C676       Br681   1.935       .  S
C677        C678   1.412       .  A
C678       Br679   1.929       .  S
C683        C684   1.409       .  A
C683        C688   1.407       .  A
C683       Br690   1.930       .  S
C684        C685   1.411       .  A
C685        C686   1.403       .  A
C685       Br692   1.931       .  S
C686        C687   1.404       .  A
C686       Br691   1.928       .  S
C687        C688   1.410       .  A
C688       Br689   1.931       .  S
C693        C694   1.420   1_545  A
C693        C698   1.405       .  A
C693       Br700   1.935   1_545  S
C694        C695   1.419   1_565  A
C695        C696   1.405       .  A
C695       Br702   1.937   1_545  S
C696        C697   1.410       .  A
C696       Br701   1.938       .  S
C697        C698   1.403       .  A
C698       Br699   1.933       .  S
C703        C704   1.412       .  A
C703        C708   1.405       .  A
C703       Br710   1.936       .  S
C704        C705   1.411       .  A
C705        C706   1.408       .  A
C705       Br712   1.930       .  S
C706        C707   1.409       .  A
C706       Br711   1.929       .  S
C707        C708   1.413       .  A
C708       Br709   1.936       .  S
C713        C714   1.408       .  A
C713        C718   1.401       .  A
C713       Br720   1.930       .  S
C714        C715   1.407       .  A
C715        C716   1.413       .  A
C715       Br722   1.928       .  S
C716        C717   1.415       .  A
C716       Br721   1.928       .  S
C717        C718   1.416       .  A
C718       Br719   1.940       .  S
C723        C724   1.413       .  A
C723        C728   1.412       .  A
C723       Br730   1.931       .  S
C724        C725   1.414       .  A
C725        C726   1.407       .  A
C725       Br732   1.938       .  S
C726        C727   1.418       .  A
C726       Br731   1.939       .  S
C727        C728   1.413       .  A
C728       Br729   1.931       .  S
C733        C734   1.406       .  A
C733        C738   1.403       .  A
C733       Br740   1.930       .  S
C734        C735   1.409       .  A
C735        C736   1.406       .  A
C735       Br742   1.930       .  S
C736        C737   1.407       .  A
C736       Br741   1.929       .  S
C737        C738   1.409       .  A
C738       Br739   1.930       .  S
C743        C748   1.406       .  A
C743       Br750   1.930       .  S
C744        C745   1.412       .  A
C745        C746   1.406       .  A
C745       Br752   1.932       .  S
C746        C747   1.408       .  A
C746       Br751   1.931       .  S
C748       Br749   1.928       .  S
