geometry optimzed in LAMMPS
_audit_creation_date              2020-11-30 
_audit_creation_method            'lammps2cif' 
_symmetry_space_group_name_H-M    'P1' 
_symmetry_Int_Tables_number       1 
_symmetry_cell_setting            triclinic 
loop_ 
_symmetry_equiv_pos_as_xyz 
  x,y,z 
_cell_length_a                    37.33862255 
_cell_length_b                    36.88052981146753 
_cell_length_c                    45.36100253069399 
_cell_angle_alpha                 89.9997476970365 
_cell_angle_beta                  89.96735780085682 
_cell_angle_gamma                 120.38680050583591 
loop_ 
_atom_site_label 
_atom_site_type_symbol 
_atom_site_fract_x 
_atom_site_fract_y 
_atom_site_fract_z 
_atom_site_charge 
C1          C  0.46730913  0.08563164  0.31371468     0.43600
N2          N  0.49635760  0.07329256  0.27745788     0.02500
C3          C  0.40619055  0.89244742  0.19172331    -0.05400
H4          H  0.41438491  0.86982773  0.30663530     0.08000
C5          C  0.56913195  0.95083418  0.29927679    -0.05700
Co6        Co  0.43602220  0.99569847  0.24488570     0.74200
N7          N  0.42788433  0.92149075  0.27735970    -0.24900
Co8        Co  0.46788636  0.92189979  0.24520957     0.74100
C9          C  0.53836291  0.91262280  0.31385734     0.43700
N10         N  0.59002320  0.04870087  0.27738095     0.02100
N11         N  0.50949842  0.92500092  0.27753236     0.02200
N12         N  0.38720769  0.94187035  0.19265842    -0.45800
H13         H  0.40402065  0.02715978  0.30405701     0.08000
N14         N  0.41576335  0.94950764  0.27704254     0.02500
N15         N  0.50930098  0.92496073  0.21292685     0.02200
C16         C  0.53819817  0.91112322  0.17752622     0.43800
N17         N  0.57790683  0.07672018  0.27766936    -0.24400
C18         C  0.43777079  0.04848290  0.19099671    -0.05300
N19         N  0.50373716  0.10014528  0.29931053    -0.45500
N20         N  0.50193777  0.89691324  0.19200521    -0.45700
C21         C  0.46871459  0.08739070  0.17721894     0.43600
N22         N  0.41535943  0.94901225  0.21302900     0.02500
N23         N  0.57961085  0.07805496  0.21346760    -0.24400
N24         N  0.45740945  0.04226458  0.27694949    -0.24900
N25         N  0.59117961  0.04960135  0.21337561     0.02100
H26         H  0.59878885  0.13411772  0.18745396     0.08000
H27         H  0.60172825  0.96969580  0.18659219     0.08000
N28         N  0.42690724  0.92054182  0.21314682    -0.24900
N29         N  0.54844390  0.95604248  0.27711606    -0.24600
N30         N  0.49721247  0.07357115  0.21286164     0.02500
C31         C  0.38584793  0.91158123  0.31456713     0.43900
C32         C  0.59516299  0.10215098  0.30093061    -0.05800
N33         N  0.54826011  0.95611957  0.21305307    -0.24600
H34         H  0.60167814  0.97111115  0.30432302     0.08000
N35         N  0.39050796  0.94469451  0.29904887    -0.45800
H36         H  0.59110149  0.12818394  0.30704954     0.08000
C37         C  0.62672631  0.09189003  0.17884686     0.43700
C38         C  0.43659426  0.04744460  0.29906775    -0.05300
Co39       Co  0.53827644  0.07650278  0.24533211     0.73800
N40         N  0.61502200  0.05334050  0.29949519    -0.45500
C41         C  0.38024598  0.90704378  0.17826905     0.44000
N42         N  0.50481907  0.10161100  0.19187512    -0.45500
Co43       Co  0.57013914  0.00272105  0.24513734     0.73900
C44         C  0.56898321  0.95005783  0.19134763    -0.05800
C45         C  0.41036344  0.89588454  0.30051776    -0.05400
N46         N  0.45824828  0.04242445  0.21285953    -0.24900
N47         N  0.50200070  0.89808767  0.29937889    -0.45700
H48         H  0.40800695  0.86467739  0.18697547     0.08000
C49         C  0.60057633  0.10632769  0.19218014    -0.05800
Cl50       Cl  0.50307706  0.99920255  0.24499925    -0.48800
C51         C  0.61948446  0.08631371  0.31507579     0.43700
H52         H  0.40508930  0.02882622  0.18608025     0.07900
N53         N  0.61959985  0.05693190  0.19314706    -0.45500
C54         C  0.08269312  0.62099608  0.32140430     0.43600
N55         N  0.07393188  0.58188036  0.28395290     0.02500
C56         C  0.89749729  0.48477931  0.19584558    -0.05400
H57         H  0.87231579  0.45570142  0.31140802     0.08000
C58         C  0.96203874  0.38727084  0.30620979    -0.05700
Co59       Co  0.99683567  0.56260266  0.25061033     0.74200
N60         N  0.92441481  0.49474305  0.28296714    -0.24900
Co61       Co  0.92748493  0.45526930  0.25118551     0.74100
C62         C  0.92468721  0.37937486  0.32159516     0.43700
N63         N  0.05652515  0.46463145  0.28248827     0.02100
N64         N  0.93347290  0.41838580  0.28407107     0.02200
N65         N  0.94389220  0.55465667  0.19649184    -0.45800
H66         H  0.02400195  0.62385313  0.31115065     0.08000
N67         N  0.95086281  0.53560781  0.28237620     0.02500
N68         N  0.93207327  0.41669539  0.21938104     0.02200
C69         C  0.91905107  0.37160571  0.18542138     0.43800
N70         N  0.08296859  0.50549690  0.28303412    -0.24400
C71         C  0.04876008  0.61712214  0.19839327    -0.05300
N72         N  0.09900267  0.60080823  0.30667793    -0.45500
N73         N  0.90386338  0.39334613  0.19934291    -0.45700
C74         C  0.08825666  0.62810717  0.18518406     0.43600
N75         N  0.95108948  0.53482237  0.21802477     0.02500
N76         N  0.08313232  0.50612727  0.21834169    -0.24400
N77         N  0.04230466  0.58852641  0.28321970    -0.24900
N78         N  0.05635837  0.46522456  0.21813181     0.02100
H79         H  0.13593470  0.54597634  0.19067215     0.08000
H80         H  0.97881514  0.37022944  0.19435932     0.08000
N81         N  0.92434527  0.49391287  0.21827973    -0.24900
N82         N  0.96510926  0.41175304  0.28337638    -0.24600
N83         N  0.07532590  0.58327228  0.21928046     0.02500
C84         C  0.91121492  0.52728767  0.31873291     0.43900
C85         C  0.10947370  0.51392524  0.30552678    -0.05800
N86         N  0.96407883  0.41069829  0.21942126    -0.24600
H87         H  0.98337640  0.37647666  0.31137338     0.08000
N88         N  0.94403023  0.55627647  0.30337399    -0.45800
H89         H  0.13504171  0.54458934  0.31143499     0.08000
C90         C  0.09681324  0.47478348  0.18163584     0.43700
C91         C  0.04536531  0.61307782  0.30600328    -0.05300
Co92       Co  0.07993296  0.54486528  0.25116435     0.73800
N93         N  0.06334147  0.44400228  0.30351976    -0.45500
C94         C  0.91073122  0.52513687  0.18147678     0.44000
N95         N  0.10351765  0.60651080  0.19918304    -0.45500
Co96       Co  0.01057690  0.43754111  0.25073219     0.73900
C97         C  0.95858787  0.38269361  0.19861140    -0.05800
C98         C  0.89787927  0.48635595  0.30545476    -0.05400
N99         N  0.04331809  0.58926391  0.21929023    -0.24900
N100        N  0.90835634  0.39947642  0.30680026    -0.45700
H101        H  0.87163155  0.45396433  0.19062148     0.08000
C102        C  0.11004213  0.51518459  0.19593107    -0.05800
Cl103      Cl  0.00370705  0.50007174  0.25083835    -0.48800
C104        C  0.09611892  0.47301485  0.31886988     0.43700
H105        H  0.02852673  0.62956027  0.19409724     0.07900
N106        N  0.06358231  0.44532429  0.19665496    -0.45500
C107        C  0.38380181  0.46152437  0.31701445     0.43600
N108        N  0.42381098  0.49145475  0.28000188     0.02500
C109        C  0.51261412  0.40236141  0.19317475    -0.05400
H110        H  0.54107295  0.40702347  0.30813291     0.08000
C111        C  0.61669015  0.56751743  0.30140762    -0.05700
Co112      Co  0.43930267  0.43044958  0.24671417     0.74200
N113        N  0.50427208  0.42225995  0.27942309    -0.24900
Co114      Co  0.54445557  0.46382166  0.24749826     0.74100
C115        C  0.62315214  0.53686158  0.31680497     0.43700
N116        N  0.54225546  0.58868159  0.27859559     0.02100
N117        N  0.58278570  0.50669204  0.28003319     0.02200
N118        N  0.44435567  0.38220132  0.19355537    -0.45800
H119        H  0.37785929  0.39789733  0.30652661     0.08000
N120        N  0.46423668  0.40942959  0.27871919     0.02500
N121        N  0.58335989  0.50588197  0.21528664     0.02200
C122        C  0.62644085  0.53489110  0.17990610     0.43800
N123        N  0.50221972  0.57586111  0.27922824    -0.24400
C124        C  0.38783359  0.43181679  0.19339867    -0.05300
N125        N  0.40551337  0.49859377  0.30259740    -0.45500
N126        N  0.60395389  0.49839658  0.19463622    -0.45700
C127        C  0.37999534  0.46290013  0.17997090     0.43600
N128        N  0.46502322  0.41003982  0.21455198     0.02500
N129        N  0.50163678  0.57568618  0.21477434    -0.24400
N130        N  0.41527770  0.45205507  0.27911410    -0.24900
N131        N  0.54158059  0.58788817  0.21438318     0.02100
H132        H  0.46437181  0.59259136  0.18796670     0.08000
H133        H  0.63211530  0.59904636  0.18827527     0.08000
N134        N  0.50496301  0.42222628  0.21498746    -0.24900
N135        N  0.59131192  0.54608716  0.27906139    -0.24600
N136        N  0.42319874  0.49202979  0.21523741     0.02500
C137        C  0.47057579  0.37685485  0.31533042     0.43900
C138        C  0.49502955  0.59496334  0.30177348    -0.05800
N139        N  0.59154175  0.54517006  0.21498956    -0.24600
H140        H  0.62903368  0.60043815  0.30619293     0.08000
N141        N  0.44294841  0.38225606  0.29986937    -0.45800
H142        H  0.46529053  0.59120438  0.30774798     0.08000
C143        C  0.53428837  0.62160188  0.17872514     0.43700
C144        C  0.39010576  0.43076925  0.30161043    -0.05300
Co145      Co  0.46210657  0.53419816  0.24736546     0.73800
N146        N  0.56345055  0.61593668  0.29971834    -0.45500
C147        C  0.47239070  0.37611388  0.17907824     0.44000
N148        N  0.40255432  0.49944568  0.19460742    -0.45500
Co149      Co  0.56724889  0.56757160  0.24663035     0.73900
C150        C  0.61861954  0.56600665  0.19328871    -0.05800
C151        C  0.51135963  0.40323137  0.30206397    -0.05400
N152        N  0.41499215  0.45273393  0.21502146    -0.24900
N153        N  0.60131253  0.49970349  0.30253281    -0.45700
H154        H  0.54227424  0.40513426  0.18836983     0.08000
C155        C  0.49403116  0.59542492  0.19284884    -0.05800
Cl156      Cl  0.50327990  0.49900891  0.24700043    -0.48800
C157        C  0.53573947  0.62137710  0.31508492     0.43700
H158        H  0.37428763  0.39874940  0.18847404     0.07900
N159        N  0.56228812  0.61559689  0.19330347    -0.45500
O160        O  0.78259532  0.49372113  0.50527474    -0.79000
O161        O  0.77941695  0.61932980  0.05858616    -0.79000
O162        O  0.81622687  0.54933522  0.04428652    -0.79000
O163        O  0.67974387  0.53912546  0.00604083    -0.79000
O164        O  0.85009496  0.61523345  0.05707188    -0.79100
O165        O  0.70636045  0.49701205  0.50604453    -0.79000
O166        O  0.74088140  0.55400058  0.04494836    -0.79000
O167        O  0.85135475  0.52602559  0.50116781    -0.79000
C168        C  0.81634848  0.49239570  0.50290259     1.10700
C169        C  0.75219320  0.58175252  0.06446892     1.10600
C170        C  0.83691909  0.57700292  0.06318831     1.10700
C171        C  0.67509176  0.50281533  0.50875838     1.10600
O172        O  0.72917119  0.53313756  0.44750691    -0.79000
O173        O  0.87532328  0.66361927  0.00282979    -0.79100
O174        O  0.85275060  0.58293570  0.46184454    -0.79000
O175        O  0.73814366  0.62260739  0.01574065    -0.79000
O176        O  0.80302297  0.66853250  0.00487829    -0.79100
O177        O  0.79691145  0.52879425  0.44646454    -0.79000
O178        O  0.73448117  0.59031913  0.46377540    -0.79000
O179        O  0.88828878  0.61276263  0.51179742    -0.79000
Co180      Co  0.75882238  0.52215484  0.47949936     1.51500
Co181      Co  0.82487555  0.63814776  0.02822003     1.51700
Co182      Co  0.83170741  0.56460602  0.50213355     1.51600
Co183      Co  0.73851790  0.57070592  0.00369923     1.51500
O184        O  0.79596010  0.58792175  0.99805485    -1.40900
C185        C  0.72522669  0.56442210  0.44330756     1.10600
C186        C  0.90073381  0.65049347  0.00444666     1.10700
C187        C  0.83317622  0.55792237  0.44158466     1.10600
C188        C  0.76569507  0.65938586  0.00821576     1.10600
O189        O  0.71504294  0.21156510  0.49399812    -0.79000
O190        O  0.85524125  0.22445826  0.05718095    -0.79000
O191        O  0.74065620  0.18354917  0.04669104    -0.79000
O192        O  0.79197561  0.28729870  0.01450806    -0.79000
O193        O  0.77913859  0.15462215  0.05507002    -0.79100
O194        O  0.78035148  0.27957400  0.46779447    -0.79000
O195        O  0.82840719  0.26550116  0.05519805    -0.79000
O196        O  0.68063109  0.14390690  0.50489828    -0.79000
C197        C  0.68108336  0.17810515  0.50174962     1.10700
C198        C  0.84605842  0.24972929  0.06934429     1.10600
C199        C  0.75314816  0.16521307  0.06373999     1.10700
C200        C  0.78431330  0.29975150  0.49105076     1.10600
O201        O  0.81609336  0.23388865  0.44570321    -0.79000
O202        O  0.79749110  0.13636225  0.99521985    -0.79100
O203        O  0.73330857  0.15571291  0.45968373    -0.79000
O204        O  0.89148248  0.27488202  0.01354976    -0.79000
O205        O  0.87326210  0.21104577  0.99763451    -0.79100
O206        O  0.73443030  0.20935202  0.43674165    -0.79000
O207        O  0.85363457  0.29367136  0.47015057    -0.79000
O208        O  0.73526555  0.11756269  0.51081769    -0.79000
Co209      Co  0.76750837  0.21997240  0.47058172     1.51500
Co210      Co  0.82467803  0.18309151  0.02425803     1.51700
Co211      Co  0.73955741  0.17313552  0.50423630     1.51600
Co212      Co  0.83864385  0.27700972  0.01314942     1.51500
O213        O  0.80010334  0.21566745  0.00446285    -1.40900
C214        C  0.84588344  0.27160444  0.44672770     1.10600
C215        C  0.76040896  0.10796511  0.99986273     1.10700
C216        C  0.72484507  0.17125688  0.43698375     1.10600
C217        C  0.90057406  0.24916972  0.00193543     1.10600
O218        O  0.29106063  0.78764578  0.49392648    -0.79000
O219        O  0.15080343  0.77537592  0.05727121    -0.79000
O220        O  0.26555061  0.81593470  0.04672479    -0.79000
O221        O  0.21365532  0.71170753  0.01505988    -0.79000
O222        O  0.22706034  0.84491026  0.05504780    -0.79100
O223        O  0.22537144  0.71936439  0.46832165    -0.79000
O224        O  0.17753063  0.73422407  0.05554119    -0.79000
O225        O  0.32548121  0.85531338  0.50474962    -0.79000
C226        C  0.32509115  0.82116378  0.50149935     1.10700
C227        C  0.16000031  0.75022274  0.06957670     1.10600
C228        C  0.25305919  0.83433174  0.06373090     1.10700
C229        C  0.22144090  0.69927775  0.49163405     1.10600
O230        O  0.18954698  0.76501881  0.44612393    -0.79000
O231        O  0.20879577  0.86283694  0.99501274    -0.79100
O232        O  0.27267676  0.84320942  0.45962561    -0.79000
O233        O  0.11453409  0.72475154  0.01386636    -0.79000
O234        O  0.13305700  0.78849872  0.99759171    -0.79100
O235        O  0.27104519  0.78924518  0.43678628    -0.79000
O236        O  0.15211849  0.70530022  0.47066767    -0.79000
O237        O  0.27092682  0.88168279  0.51072132    -0.79000
Co238      Co  0.23831011  0.77902927  0.47077674     1.51500
Co239      Co  0.18152476  0.81643388  0.02423971     1.51700
Co240      Co  0.26654703  0.82607163  0.50426179     1.51600
Co241      Co  0.16720440  0.72232371  0.01358004     1.51500
O242        O  0.20598615  0.78359576  0.00471139    -1.40900
C243        C  0.15981135  0.72729125  0.44720986     1.10600
C244        C  0.24582936  0.89123321  0.99966694     1.10700
C245        C  0.28086609  0.82740843  0.43692702     1.10600
C246        C  0.10564702  0.75044287  0.00197703     1.10600
O247        O  0.53700839  0.85529470  0.50221557    -0.79000
O248        O  0.56091143  0.73914528  0.04266150    -0.79000
O249        O  0.50303441  0.70676909  0.50527846    -0.79000
O250        O  0.62492166  0.84909962  0.05449798    -0.79000
O251        O  0.54279519  0.67777531  0.00250454    -0.79100
O252        O  0.55949275  0.81619659  0.04253603    -0.79000
O253        O  0.62597657  0.77609027  0.05530753    -0.79000
O254        O  0.50084255  0.78540649  0.50556428    -0.79000
C255        C  0.50270751  0.82144169  0.50603778     1.10700
C256        C  0.58873802  0.74930686  0.06169679     1.10600
C257        C  0.50765485  0.67427816  0.50675622     1.10700
C258        C  0.58745851  0.83572853  0.06125907     1.10600
O259        O  0.62253508  0.88911595  0.51009926    -0.79000
O260        O  0.59355424  0.73378771  0.46048509    -0.79100
O261        O  0.53370050  0.79879903  0.44617755    -0.79000
O262        O  0.67290633  0.79916985  0.00067546    -0.79000
O263        O  0.62614469  0.73400384  0.01143628    -0.79100
O264        O  0.58936299  0.85440225  0.45997826    -0.79000
O265        O  0.67102725  0.87384401  0.99985690    -0.79000
O266        O  0.53671348  0.72964496  0.44620858    -0.79000
Co267      Co  0.57302583  0.83294275  0.50058209     1.51500
Co268      Co  0.57575919  0.73716741  0.00081227     1.51700
Co269      Co  0.52794864  0.76016938  0.47899812     1.51600
Co270      Co  0.64508539  0.82261449  0.02499357     1.51500
O271        O  0.59424542  0.79561918  0.99563660    -1.40900
C272        C  0.65936370  0.90053680  0.00219163     1.10600
C273        C  0.56734086  0.72558004  0.44073291     1.10700
C274        C  0.56304656  0.83491382  0.44044167     1.10600
C275        C  0.66290924  0.76117873  0.00421302     1.10600
O276        O  0.15450159  0.41616355  0.46144393    -0.79000
O277        O  0.26807612  0.37581187  0.01625373    -0.79000
O278        O  0.27818756  0.46543900  0.44778461    -0.79000
O279        O  0.13103897  0.33541306  0.00292775    -0.79000
O280        O  0.27229475  0.40805755  0.46416397    -0.79100
O281        O  0.11846032  0.38664581  0.51142876    -0.79000
O282        O  0.20315126  0.33003662  0.00538390    -0.79000
O283        O  0.21062887  0.47014734  0.44621110    -0.79000
C284        C  0.17430918  0.44121803  0.44123384     1.10700
C285        C  0.24041896  0.33903029  0.00884004     1.10600
C286        C  0.28193274  0.43401995  0.44368581     1.10700
C287        C  0.10579772  0.34878043  0.00435117     1.10600
O288        O  0.19044654  0.44995001  0.04394938    -0.79000
O289        O  0.32685043  0.45928661  0.00647709    -0.79100
O290        O  0.22456938  0.50552694  0.50487547    -0.79000
O291        O  0.22661213  0.37943438  0.05891782    -0.79000
O292        O  0.26552055  0.44466767  0.04518906    -0.79100
O293        O  0.15585837  0.47332259  0.50050499    -0.79000
O294        O  0.15624939  0.38413035  0.05697504    -0.79000
O295        O  0.30033958  0.50149912  0.50631000    -0.79000
Co296      Co  0.17523543  0.43452959  0.50178231     1.51500
Co297      Co  0.26807067  0.42782897  0.00399411     1.51700
Co298      Co  0.24827330  0.47660237  0.47949456     1.51600
Co299      Co  0.18138448  0.36079063  0.02841186     1.51500
O300        O  0.21073199  0.41086907  0.99811389    -1.40900
C301        C  0.16964363  0.42243672  0.06294344     1.10600
C302        C  0.33154995  0.49563767  0.50909552     1.10700
C303        C  0.19085427  0.50690990  0.50244856     1.10600
C304        C  0.25405967  0.41693558  0.06474588     1.10600
O305        O  0.46965392  0.14387789  0.50206893    -0.79000
O306        O  0.44538476  0.25907195  0.04308340    -0.79000
O307        O  0.50318336  0.29225934  0.50555263    -0.79000
O308        O  0.38140756  0.14895549  0.05437230    -0.79000
O309        O  0.46315302  0.32097091  0.00344807    -0.79100
O310        O  0.44684323  0.18248400  0.04247386    -0.79000
O311        O  0.38032644  0.22189896  0.05577694    -0.79000
O312        O  0.50558638  0.21378055  0.50558548    -0.79000
C313        C  0.50381230  0.17779016  0.50611837     1.10700
C314        C  0.41757544  0.24857587  0.06219928     1.10600
C315        C  0.49839485  0.32461992  0.50737509     1.10700
C316        C  0.41888622  0.16249812  0.06112236     1.10600
O317        O  0.38403416  0.10971877  0.50971654    -0.79000
O318        O  0.41257676  0.26544444  0.46122415    -0.79100
O319        O  0.47300151  0.20069678  0.44613222    -0.79000
O320        O  0.33337214  0.19940543  0.00114171    -0.79000
O321        O  0.37994266  0.26441634  0.01232668    -0.79100
O322        O  0.41746020  0.14487118  0.45982639    -0.79000
O323        O  0.33550282  0.12500626  0.99969605    -0.79000
O324        O  0.46927196  0.26950480  0.44654065    -0.79000
Co325      Co  0.43353046  0.16606338  0.50048530     1.51500
Co326      Co  0.43043336  0.26158405  0.00138451     1.51700
Co327      Co  0.47839401  0.23900118  0.47912787     1.51600
Co328      Co  0.36126791  0.17579391  0.02515397     1.51500
O329        O  0.41211199  0.20322648  0.99575749    -1.40900
C330        C  0.34721125  0.09834847  0.00184267     1.10600
C331        C  0.43862919  0.27364291  0.44132983     1.10700
C332        C  0.44383840  0.16450796  0.44033779     1.10600
C333        C  0.34324248  0.23729850  0.00496545     1.10600
C334        C  0.31261823  0.24984454  0.00243552    -0.17400
C335        C  0.28988592  0.26424908  0.00208275     0.06700
C336        C  0.26725802  0.28554201  0.00315388     0.08500
C337        C  0.25214045  0.30767499  0.00511594    -0.18200
C338        C  0.37139799  0.53058442  0.51639972    -0.17400
C339        C  0.40455463  0.56214853  0.51922787     0.06700
C340        C  0.44223752  0.60073871  0.51856816     0.08500
C341        C  0.47302785  0.63435602  0.51476440    -0.18200
C342        C  0.25938299  0.93474480  0.99429860    -0.17400
C343        C  0.27476140  0.97242649  0.99274451     0.06700
C344        C  0.29676079  0.01689579  0.99372689     0.08500
C345        C  0.31843145  0.05450237  0.99650520    -0.18200
C346        C  0.21991107  0.65990455  0.49148066    -0.17400
C347        C  0.21274314  0.62451742  0.49446665     0.06100
C348        C  0.20162366  0.58253937  0.49941428     0.08500
C349        C  0.19387788  0.54697900  0.50252876    -0.18200
C350        C  0.36212280  0.81969623  0.50728042    -0.17400
C351        C  0.39448482  0.82047120  0.51094279     0.06700
C352        C  0.43303140  0.82213815  0.51289526     0.08500
C353        C  0.46562078  0.82282534  0.51169199    -0.18200
C354        C  0.74680963  0.06437280  0.99458907    -0.17400
C355        C  0.73145283  0.02665698  0.99310971     0.06700
C356        C  0.70961902  0.98213727  0.99414742     0.08500
C357        C  0.68812442  0.94447434  0.99692563    -0.18200
C358        C  0.94366779  0.26346932  0.99616807    -0.17400
C359        C  0.98092284  0.27888282  0.99464780     0.06700
C360        C  0.02490172  0.30020304  0.99585698     0.08500
C361        C  0.06216936  0.32093496  0.99884732    -0.18200
C362        C  0.64423247  0.17971565  0.50786192    -0.17400
C363        C  0.61196182  0.17903049  0.51170073     0.06700
C364        C  0.57342798  0.17732247  0.51361222     0.08500
C365        C  0.54082520  0.17652339  0.51215890    -0.18200
C366        C  0.06266514  0.73622895  0.99599223    -0.17400
C367        C  0.02543766  0.72079596  0.99437815     0.06700
C368        C  0.98148827  0.69933897  0.99564370     0.08500
C369        C  0.94426976  0.67845239  0.99877756    -0.18200
C370        C  0.69346939  0.74855614  0.00155693    -0.17400
C371        C  0.71611805  0.73405215  0.00114714     0.06700
C372        C  0.73868119  0.71269165  0.00221662     0.08500
C373        C  0.75381647  0.69058558  0.00427113    -0.18200
C374        C  0.81331465  0.45234057  0.50270917    -0.17400
C375        C  0.80531920  0.41676254  0.49926318     0.06700
C376        C  0.79373107  0.37474929  0.49395815     0.08500
C377        C  0.78616190  0.33926034  0.49081910    -0.18200
C378        C  0.63521818  0.46790051  0.51615186    -0.17400
C379        C  0.60192773  0.43653564  0.51919087     0.06700
C380        C  0.56400368  0.39814582  0.51885770     0.08500
C381        C  0.53305063  0.36458369  0.51528124    -0.18200
C382        C  0.46208094  0.34589288  0.15569603    -0.17400
C383        C  0.45169118  0.32052340  0.13592538     0.06700
C384        C  0.43867670  0.29197656  0.11193107     0.08500
C385        C  0.42806468  0.27001712  0.09017307    -0.18200
C386        C  0.46020265  0.35113499  0.34122149    -0.17400
C387        C  0.45033188  0.33020803  0.36335390     0.06700
C388        C  0.44031555  0.30739679  0.38999545     0.08500
C389        C  0.43592409  0.29020140  0.41339809    -0.18200
C390        C  0.65605759  0.54228284  0.15708458    -0.17400
C391        C  0.68104038  0.55056854  0.13761901     0.06700
C392        C  0.70917921  0.56163538  0.11388302     0.08500
C393        C  0.73088269  0.57123763  0.09225101    -0.18200
C394        C  0.64703664  0.54434782  0.34343027    -0.17400
C395        C  0.66711616  0.55322505  0.36593796     0.06700
C396        C  0.68988011  0.56315315  0.39267894     0.08500
C397        C  0.70768970  0.56775336  0.41586392    -0.18200
C398        C  0.57830161  0.72742532  0.08952691    -0.17400
C399        C  0.56784083  0.70533351  0.11123598     0.06700
C400        C  0.55498107  0.67684398  0.13528751     0.08500
C401        C  0.54463635  0.65161970  0.15517083    -0.18200
C402        C  0.54597414  0.64741476  0.34081485    -0.17400
C403        C  0.55560048  0.66859448  0.36282594     0.06700
C404        C  0.56540868  0.69166416  0.38936076     0.08500
C405        C  0.56981144  0.70899360  0.41272020    -0.18200
C406        C  0.35037499  0.45550712  0.15716623    -0.17400
C407        C  0.32542276  0.44741736  0.13772419     0.06700
C408        C  0.29727801  0.43667779  0.11403668     0.08500
C409        C  0.27550122  0.42731527  0.09246786    -0.18200
C410        C  0.29964530  0.43061958  0.41633342    -0.17400
C411        C  0.31754100  0.43529897  0.39316153     0.06700
C412        C  0.34027815  0.44532980  0.36638410     0.08500
C413        C  0.36021420  0.45420163  0.34379163    -0.18200
C414        C  0.89147125  0.53399580  0.15691101    -0.17400
C415        C  0.87667640  0.54314084  0.13638671     0.06700
C416        C  0.86078297  0.55500589  0.11196625     0.08500
C417        C  0.84876284  0.56531920  0.09041905    -0.18200
C418        C  0.89415721  0.53688597  0.34387549    -0.17400
C419        C  0.88135237  0.54617852  0.36525937     0.06700
C420        C  0.86644409  0.55559406  0.39102150     0.08500
C421        C  0.85239406  0.55981596  0.41382554    -0.18200
C422        C  0.85869674  0.26429894  0.09882512    -0.17400
C423        C  0.86938991  0.28392029  0.12148499     0.06700
C424        C  0.88315798  0.31244520  0.14522657     0.08500
C425        C  0.89750346  0.33920834  0.16395574    -0.18200
C426        C  0.90833085  0.35523358  0.34830940    -0.17400
C427        C  0.89621929  0.33476385  0.37074715     0.06700
C428        C  0.88174571  0.31106161  0.39717451     0.08500
C429        C  0.86734049  0.29188772  0.41987310    -0.18200
C430        C  0.11596539  0.46586266  0.15700889    -0.17400
C431        C  0.13059340  0.45667414  0.13638599     0.06700
C432        C  0.14623915  0.44477379  0.11181821     0.08500
C433        C  0.15803778  0.43438176  0.09017921    -0.18200
C434        C  0.11327266  0.46340816  0.34395004    -0.17400
C435        C  0.12616987  0.45400054  0.36522338     0.06700
C436        C  0.14118141  0.44430136  0.39080890     0.08500
C437        C  0.15523969  0.43972590  0.41348724    -0.18200
C438        C  0.10985057  0.66063894  0.16385955    -0.17400
C439        C  0.12394288  0.68762595  0.14530081     0.06700
C440        C  0.13720915  0.71637930  0.12174889     0.08500
C441        C  0.14754944  0.73602258  0.09911062    -0.18200
C442        C  0.13844704  0.70695807  0.42036550    -0.17400
C443        C  0.12435996  0.68800779  0.39756090     0.06700
C444        C  0.11039879  0.66475800  0.37093261     0.08500
C445        C  0.09869441  0.64470984  0.34830858    -0.18200
C446        C  0.27204450  0.84668123  0.09221904    -0.17400
C447        C  0.29339183  0.85786431  0.11402443     0.06700
C448        C  0.32242051  0.87236778  0.13731667     0.08500
C449        C  0.34880308  0.88672612  0.15613374    -0.18200
C450        C  0.30042560  0.85227732  0.41147848    -0.17400
C451        C  0.31884747  0.86894058  0.38925137     0.06700
C452        C  0.34174542  0.88458004  0.36313490     0.08500
C453        C  0.36185063  0.89663953  0.34090648    -0.18200
C454        C  0.57683683  0.84592376  0.08919393    -0.17400
C455        C  0.56666494  0.85700953  0.11105807     0.06700
C456        C  0.55467920  0.87291509  0.13501960     0.08500
C457        C  0.54576395  0.88900300  0.15460909    -0.18200
C458        C  0.56413157  0.85372207  0.41241295    -0.17400
C459        C  0.55998522  0.86696956  0.38907349     0.06700
C460        C  0.55194010  0.88134884  0.36230857     0.08500
C461        C  0.54476024  0.89439115  0.33997371    -0.18200
C462        C  0.65815134  0.11226496  0.15667040    -0.17400
C463        C  0.68436012  0.12683207  0.13771430     0.06700
C464        C  0.71309260  0.14161669  0.11420535     0.08500
C465        C  0.73421834  0.15292861  0.09227184    -0.18200
C466        C  0.70528254  0.14618154  0.41164333    -0.17400
C467        C  0.68679657  0.12928588  0.38951046     0.06700
C468        C  0.66374938  0.11343236  0.36350683     0.08500
C469        C  0.64351945  0.10128646  0.34136254    -0.18200
C470        C  0.46134383  0.10948963  0.15420056    -0.17400
C471        C  0.45233409  0.12543174  0.13458195     0.06700
C472        C  0.44004358  0.14111764  0.11068415     0.08500
C473        C  0.42960725  0.15212340  0.08892798    -0.18200
C474        C  0.46096859  0.10380378  0.33990455    -0.17400
C475        C  0.45424403  0.11716583  0.36228153     0.06700
C476        C  0.44682777  0.13211674  0.38904285     0.08500
C477        C  0.44296344  0.14572323  0.41232507    -0.18200
C478        C  0.46731475  0.08563927  0.81371014     0.43600
N479        N  0.49636451  0.07329611  0.77745648     0.02500
C480        C  0.40619243  0.89245029  0.69172230    -0.05400
H481        H  0.41438257  0.86982867  0.80663311     0.08000
C482        C  0.56912984  0.95082942  0.79927826    -0.05700
Co483      Co  0.43602793  0.99570252  0.74488430     0.74200
N484        N  0.42788545  0.92149322  0.77735839    -0.24900
Co485      Co  0.46788754  0.92190061  0.74520908     0.74100
C486        C  0.53835903  0.91261837  0.81385819     0.43700
N487        N  0.59002612  0.04869797  0.77738299     0.02100
N488        N  0.50949741  0.92499926  0.77753265     0.02200
N489        N  0.38721186  0.94187504  0.69265746    -0.45800
H490        H  0.40402636  0.02716907  0.80405174     0.08000
N491        N  0.41576638  0.94951154  0.77704124     0.02500
N492        N  0.50930257  0.92495959  0.71292733     0.02200
C493        C  0.53820041  0.91111817  0.67752916     0.43800
N494        N  0.57791152  0.07671873  0.77767097    -0.24400
C495        C  0.43778054  0.04848701  0.69099470    -0.05300
N496        N  0.50374352  0.10015090  0.79930754    -0.45500
N497        N  0.50193936  0.89691069  0.69200669    -0.45700
C498        C  0.46872538  0.08739400  0.67721680     0.43600
N499        N  0.41536386  0.94901628  0.71302776     0.02500
N500        N  0.57961862  0.07805492  0.71346912    -0.24400
N501        N  0.45741602  0.04226907  0.77694756    -0.24900
N502        N  0.59118590  0.04960003  0.71337730     0.02100
H503        H  0.59879934  0.13411973  0.68745626     0.08000
H504        H  0.60173038  0.96968838  0.68659612     0.08000
N505        N  0.42691006  0.92054476  0.71314575    -0.24900
N506        N  0.54844355  0.95603950  0.77711710    -0.24600
N507        N  0.49722158  0.07357394  0.71286045     0.02500
C508        C  0.38584776  0.91158393  0.81456477     0.43900
C509        C  0.59516639  0.10214796  0.80093327    -0.05800
N510        N  0.54826225  0.95611711  0.71305423    -0.24600
H511        H  0.60167629  0.97110473  0.80432496     0.08000
N512        N  0.39051022  0.94469867  0.79904704    -0.45800
H513        H  0.59110557  0.12818090  0.80705230     0.08000
C514        C  0.62673556  0.09188963  0.67884990     0.43700
C515        C  0.43659995  0.04745141  0.79906408    -0.05300
Co516      Co  0.53828370  0.07650405  0.74533226     0.73800
N517        N  0.61502249  0.05333519  0.79949836    -0.45500
C518        C  0.38024875  0.90704798  0.67826822     0.44000
N519        N  0.50482941  0.10161384  0.69187370    -0.45500
Co520      Co  0.57014195  0.00271871  0.74513874     0.73900
C521        C  0.56898587  0.95005297  0.69135025    -0.05800
C522        C  0.41036255  0.89588612  0.80051577    -0.05400
N523        N  0.45825682  0.04242818  0.71285803    -0.24900
N524        N  0.50199768  0.89808512  0.79937891    -0.45700
H525        H  0.40800686  0.86468009  0.68697493     0.08000
C526        C  0.60058584  0.10632789  0.69218247    -0.05800
Cl527      Cl  0.50308138  0.99920350  0.74499911    -0.48800
C528        C  0.61948487  0.08630789  0.81507965     0.43700
H529        H  0.40509821  0.02883090  0.68607823     0.07900
N530        N  0.61960699  0.05693033  0.69314960    -0.45500
C531        C  0.08269440  0.62099438  0.82140359     0.43600
N532        N  0.07392987  0.58187649  0.78395294     0.02500
C533        C  0.89749527  0.48478071  0.69584531    -0.05400
H534        H  0.87231169  0.45570210  0.81140814     0.08000
C535        C  0.96203017  0.38726580  0.80620887    -0.05700
Co536      Co  0.99683384  0.56260136  0.75061091     0.74200
N537        N  0.92441178  0.49474307  0.78296750    -0.24900
Co538      Co  0.92747982  0.45526822  0.75118572     0.74100
C539        C  0.92467889  0.37937033  0.82159429     0.43700
N540        N  0.05651808  0.46462547  0.78248816     0.02100
N541        N  0.93346608  0.41838330  0.78407117     0.02200
N542        N  0.94389153  0.55465767  0.69649213    -0.45800
H543        H  0.02400416  0.62385398  0.81115053     0.08000
N544        N  0.95086119  0.53560759  0.78237683     0.02500
N545        N  0.93206554  0.41669239  0.71938121     0.02200
C546        C  0.91903950  0.37159902  0.68542334     0.43800
N547        N  0.08296276  0.50549068  0.78303386    -0.24400
C548        C  0.04875834  0.61711932  0.69839358    -0.05300
N549        N  0.09900201  0.60080471  0.80667726    -0.45500
N550        N  0.90385401  0.39334199  0.69934427    -0.45700
C551        C  0.08825414  0.62810286  0.68518389     0.43600
N552        N  0.95108733  0.53482250  0.71802538     0.02500
N553        N  0.08312595  0.50612157  0.71834169    -0.24400
N554        N  0.04230358  0.58852403  0.78322003    -0.24900
N555        N  0.05635104  0.46521907  0.71813163     0.02100
H556        H  0.13592966  0.54597073  0.69067277     0.08000
H557        H  0.97880288  0.37022059  0.69436112     0.08000
N558        N  0.92434235  0.49391327  0.71828000    -0.24900
N559        N  0.96510176  0.41174930  0.78337618    -0.24600
N560        N  0.07532269  0.58326812  0.71928054     0.02500
C561        C  0.91121363  0.52728872  0.81873348     0.43900
C562        C  0.10946843  0.51391812  0.80552600    -0.05800
N563        N  0.96407040  0.41069401  0.71942124    -0.24600
H564        H  0.98336763  0.37647043  0.81137195     0.08000
N565        N  0.94402966  0.55627677  0.80337474    -0.45800
H566        H  0.13503749  0.54458163  0.81143365     0.08000
C567        C  0.09680597  0.47477751  0.68163591     0.43700
C568        C  0.04536632  0.61307681  0.80600322    -0.05300
Co569      Co  0.07992847  0.54486015  0.75116432     0.73800
N570        N  0.06333419  0.44399548  0.80351923    -0.45500
C571        C  0.91073067  0.52513868  0.68147656     0.44000
N572        N  0.10351436  0.60650569  0.69918272    -0.45500
Co573      Co  0.01056933  0.43753639  0.75073201     0.73900
C574        C  0.95857692  0.38268706  0.69861252    -0.05800
C575        C  0.89787647  0.48635690  0.80545504    -0.05400
N576        N  0.04331584  0.58926121  0.71929062    -0.24900
N577        N  0.90834919  0.39947372  0.80680010    -0.45700
H578        H  0.87162994  0.45396667  0.69062065     0.08000
C579        C  0.11003593  0.51517854  0.69593139    -0.05800
Cl580      Cl  0.00370224  0.50006856  0.75083855    -0.48800
C581        C  0.09611264  0.47300737  0.81886903     0.43700
H582        H  0.02852525  0.62955862  0.69409756     0.07900
N583        N  0.06357433  0.44531851  0.69665465    -0.45500
C584        C  0.38379603  0.46152338  0.81700992     0.43600
N585        N  0.42380876  0.49145543  0.77999931     0.02500
C586        C  0.51261609  0.40236326  0.69317563    -0.05400
H587        H  0.54106969  0.40702156  0.80813376     0.08000
C588        C  0.61668653  0.56751533  0.80141192    -0.05700
Co589      Co  0.43930263  0.43045142  0.74671237     0.74200
N590        N  0.50426958  0.42225976  0.77942321    -0.24900
Co591      Co  0.54445528  0.46382207  0.74749987     0.74100
C592        C  0.62314732  0.53685887  0.81680948     0.43700
N593        N  0.54225396  0.58868032  0.77859743     0.02100
N594        N  0.58278343  0.50669084  0.78003624     0.02200
N595        N  0.44435786  0.38220452  0.69355436    -0.45800
H596        H  0.37785477  0.39789780  0.80652182     0.08000
N597        N  0.46423421  0.40942993  0.77871817     0.02500
N598        N  0.58336260  0.50588353  0.71528974     0.02200
C599        C  0.62644722  0.53489451  0.67991130     0.43800
N600        N  0.50221829  0.57586029  0.77922881    -0.24400
C601        C  0.38783803  0.43182108  0.69339499    -0.05300
N602        N  0.40550918  0.49859347  0.80259402    -0.45500
N603        N  0.60395824  0.49839902  0.69464011    -0.45700
C604        C  0.38000118  0.46290513  0.67996686     0.43600
N605        N  0.46502479  0.41004276  0.71455122     0.02500
N606        N  0.50164041  0.57568931  0.71477480    -0.24400
N607        N  0.41527544  0.45205583  0.77911114    -0.24900
N608        N  0.54158415  0.58789089  0.71438489     0.02100
H609        H  0.46437799  0.59259715  0.68796674     0.08000
H610        H  0.63212120  0.59904940  0.68828124     0.08000
N611        N  0.50496422  0.42222839  0.71498785    -0.24900
N612        N  0.59130977  0.54608610  0.77906487    -0.24600
N613        N  0.42320200  0.49203330  0.71523486     0.02500
C614        C  0.47057110  0.37685363  0.81532917     0.43900
C615        C  0.49502647  0.59495971  0.80177504    -0.05800
N616        N  0.59154487  0.54517178  0.71499314    -0.24600
H617        H  0.62903033  0.60043669  0.80619765     0.08000
N618        N  0.44294455  0.38225572  0.79986760    -0.45800
H619        H  0.46528701  0.59120016  0.80774920     0.08000
C620        C  0.53429461  0.62160675  0.67872689     0.43700
C621        C  0.39010128  0.43076883  0.80160628    -0.05300
Co622      Co  0.46210743  0.53419998  0.74736439     0.73800
N623        N  0.56344750  0.61593266  0.79972185    -0.45500
C624        C  0.47239313  0.37611668  0.67907819     0.44000
N625        N  0.40255893  0.49945007  0.69460418    -0.45500
Co626      Co  0.56724965  0.56757220  0.74663290     0.73900
C627        C  0.61862500  0.56600962  0.69329374    -0.05800
C628        C  0.51135549  0.40323008  0.80206392    -0.05400
N629        N  0.41499505  0.45273748  0.71501880    -0.24900
N630        N  0.60130869  0.49970135  0.80253642    -0.45700
H631        H  0.54227503  0.40513500  0.68837203     0.08000
C632        C  0.49403645  0.59542938  0.69284926    -0.05800
Cl633      Cl  0.50328019  0.49901008  0.74700072    -0.48800
C634        C  0.53573535  0.62137140  0.81508829     0.43700
H635        H  0.37429278  0.39875510  0.68846998     0.07900
N636        N  0.56229314  0.61560044  0.69330590    -0.45500
O637        O  0.78259759  0.49372273  0.00527386    -0.79000
O638        O  0.77941356  0.61933005  0.55858405    -0.79000
O639        O  0.81622415  0.54933446  0.54428634    -0.79000
O640        O  0.67974149  0.53912378  0.50603832    -0.79000
O641        O  0.85009150  0.61523302  0.55707124    -0.79100
O642        O  0.70636301  0.49701388  0.00604504    -0.79000
O643        O  0.74087774  0.55400016  0.54494751    -0.79000
O644        O  0.85135694  0.52602720  0.00116694    -0.79000
C645        C  0.81635063  0.49239718  0.00290100     1.10700
C646        C  0.75218967  0.58175302  0.56446747     1.10600
C647        C  0.83691589  0.57700259  0.56318805     1.10700
C648        C  0.67509432  0.50281696  0.00875991     1.10600
O649        O  0.72917316  0.53314163  0.94750808    -0.79000
O650        O  0.87532108  0.66361735  0.50282849    -0.79100
O651        O  0.85275259  0.58293857  0.96184497    -0.79000
O652        O  0.73814089  0.62260596  0.51573708    -0.79000
O653        O  0.80302047  0.66853105  0.50487525    -0.79100
O654        O  0.79691299  0.52879809  0.94646440    -0.79000
O655        O  0.73448240  0.59032222  0.96377781    -0.79000
O656        O  0.88829134  0.61276453  0.01179747    -0.79000
Co657      Co  0.75882448  0.52215754  0.97949963     1.51500
Co658      Co  0.82487272  0.63814678  0.52821826     1.51700
Co659      Co  0.83170974  0.56460782  0.00213380     1.51600
Co660      Co  0.73851551  0.57070409  0.50369749     1.51500
O661        O  0.79595773  0.58791976  0.49805374    -1.40900
C662        C  0.72522784  0.56442580  0.94330957     1.10600
C663        C  0.90073143  0.65049130  0.50444588     1.10700
C664        C  0.83317788  0.55792613  0.94158477     1.10600
C665        C  0.76569238  0.65938429  0.50821190     1.10600
O666        O  0.71504682  0.21156529  0.99400129    -0.79000
O667        O  0.85523619  0.22445644  0.55717895    -0.79000
O668        O  0.74065226  0.18354635  0.54668869    -0.79000
O669        O  0.79196876  0.28729542  0.51450718    -0.79000
O670        O  0.77913494  0.15461898  0.55506554    -0.79100
O671        O  0.78035533  0.27957326  0.96779560    -0.79000
O672        O  0.82840035  0.26549790  0.55519689    -0.79000
O673        O  0.68063541  0.14390716  0.00490079    -0.79000
C674        C  0.68108727  0.17810515  0.00175240     1.10700
C675        C  0.84605201  0.24972627  0.56934295     1.10600
C676        C  0.75314502  0.16520984  0.56373666     1.10700
C677        C  0.78431910  0.29975301  0.99105118     1.10600
O678        O  0.81609574  0.23388572  0.94570567    -0.79000
O679        O  0.79748869  0.13636378  0.49521478    -0.79100
O680        O  0.73331325  0.15571126  0.95968704    -0.79000
O681        O  0.89147800  0.27488266  0.51354909    -0.79000
O682        O  0.87325906  0.21104782  0.49763163    -0.79100
O683        O  0.73443239  0.20934870  0.93674459    -0.79000
O684        O  0.85363848  0.29366970  0.97015106    -0.79000
O685        O  0.73526868  0.11756300  0.01082296    -0.79000
Co686      Co  0.76751158  0.21997131  0.97058457     1.51500
Co687      Co  0.82467455  0.18309126  0.52425436     1.51700
Co688      Co  0.73956167  0.17313585  0.00423912     1.51600
Co689      Co  0.83863843  0.27700881  0.51314853     1.51500
O690        O  0.80009915  0.21566716  0.50446006    -1.40900
C691        C  0.84588577  0.27160154  0.94672874     1.10600
C692        C  0.76040664  0.10796600  0.49985715     1.10700
C693        C  0.72484831  0.17125389  0.93698695     1.10600
C694        C  0.90057065  0.24917143  0.50193424     1.10600
O695        O  0.29106177  0.78764603  0.99392404    -0.79000
O696        O  0.15080018  0.77537368  0.55727253    -0.79000
O697        O  0.26554843  0.81593381  0.54672637    -0.79000
O698        O  0.21365399  0.71170740  0.51506173    -0.79000
O699        O  0.22705721  0.84490845  0.55504960    -0.79100
O700        O  0.22537254  0.71936522  0.96831969    -0.79000
O701        O  0.17752792  0.73422232  0.55554266    -0.79000
O702        O  0.32548342  0.85531344  0.00474812    -0.79000
C703        C  0.32509244  0.82116340  0.00149750     1.10700
C704        C  0.15999737  0.75022077  0.56957810     1.10600
C705        C  0.25305700  0.83433096  0.56373244     1.10700
C706        C  0.22144307  0.69927881  0.99163206     1.10600
O707        O  0.18954783  0.76501971  0.94612234    -0.79000
O708        O  0.20879297  0.86283557  0.49501466    -0.79100
O709        O  0.27267948  0.84321026  0.95962390    -0.79000
O710        O  0.11453170  0.72474943  0.51386723    -0.79000
O711        O  0.13305445  0.78849673  0.49759297    -0.79100
O712        O  0.27104561  0.78924529  0.93678391    -0.79000
O713        O  0.15211969  0.70530115  0.97066648    -0.79000
O714        O  0.27092963  0.88168413  0.01071937    -0.79000
Co715      Co  0.23831130  0.77903010  0.97077466     1.51500
Co716      Co  0.18152183  0.81643204  0.52424134     1.51700
Co717      Co  0.26654944  0.82607251  0.00426017     1.51600
Co718      Co  0.16720241  0.72232233  0.51358143     1.51500
O719        O  0.20598381  0.78359431  0.50471312    -1.40900
C720        C  0.15981257  0.72729188  0.94720846     1.10600
C721        C  0.24582659  0.89123187  0.49966897     1.10700
C722        C  0.28086779  0.82740888  0.93692501     1.10600
C723        C  0.10564470  0.75044050  0.50197749     1.10600
O724        O  0.53700589  0.85528916  0.00221362    -0.79000
O725        O  0.56091136  0.73914619  0.54266020    -0.79000
O726        O  0.50303518  0.70676461  0.00528119    -0.79000
O727        O  0.62492313  0.84909991  0.55449783    -0.79000
O728        O  0.54279292  0.67777794  0.50250135    -0.79100
O729        O  0.55949398  0.81619882  0.54253641    -0.79000
O730        O  0.62597719  0.77609042  0.55530529    -0.79000
O731        O  0.50084136  0.78540118  0.00556448    -0.79000
C732        C  0.50270559  0.82143604  0.00603686     1.10700
C733        C  0.58873867  0.74930729  0.56169506     1.10600
C734        C  0.50765672  0.67427442  0.00675938     1.10700
C735        C  0.58746006  0.83572828  0.56125971     1.10600
O736        O  0.62253262  0.88911293  0.01009755    -0.79000
O737        O  0.59355612  0.73378442  0.96048789    -0.79100
O738        O  0.53369828  0.79879060  0.94617777    -0.79000
O739        O  0.67290573  0.79917051  0.50067271    -0.79000
O740        O  0.62614292  0.73400444  0.51143284    -0.79100
O741        O  0.58936025  0.85439570  0.95997692    -0.79000
O742        O  0.67102822  0.87384590  0.49985612    -0.79000
O743        O  0.53671338  0.72963733  0.94621175    -0.79000
Co744      Co  0.57302428  0.83293848  0.00058131     1.51500
Co745      Co  0.57575802  0.73716982  0.50081019     1.51700
Co746      Co  0.52794823  0.76016352  0.97899972     1.51600
Co747      Co  0.64508601  0.82261553  0.52499206     1.51500
O748        O  0.59424536  0.79562221  0.49563568    -1.40900
C749        C  0.65936545  0.90053916  0.50219171     1.10600
C750        C  0.56734143  0.72557361  0.94073626     1.10700
C751        C  0.56304323  0.83490567  0.94044094     1.10600
C752        C  0.66290769  0.76117895  0.50420954     1.10600
O753        O  0.15450226  0.41616270  0.96144292    -0.79000
O754        O  0.26807432  0.37581215  0.51625606    -0.79000
O755        O  0.27818655  0.46543646  0.94778138    -0.79000
O756        O  0.13103704  0.33541220  0.50292753    -0.79000
O757        O  0.27229365  0.40805518  0.96416128    -0.79100
O758        O  0.11846286  0.38664717  0.01142862    -0.79000
O759        O  0.20314989  0.33003722  0.50538465    -0.79000
O760        O  0.21062901  0.47014620  0.94620916    -0.79000
C761        C  0.17430921  0.44121658  0.94123238     1.10700
C762        C  0.24041721  0.33903060  0.50884219     1.10600
C763        C  0.28193053  0.43401676  0.94368262     1.10700
C764        C  0.10579539  0.34877909  0.50435130     1.10600
O765        O  0.19044317  0.44994805  0.54395089    -0.79000
O766        O  0.32684883  0.45928871  0.50648120    -0.79100
O767        O  0.22457263  0.50552731  0.00487323    -0.79000
O768        O  0.22660862  0.37943322  0.55891921    -0.79000
O769        O  0.26551651  0.44466698  0.54519142    -0.79100
O770        O  0.15586173  0.47332438  0.00050321    -0.79000
O771        O  0.15624538  0.38412796  0.55697535    -0.79000
O772        O  0.30034241  0.50149824  0.00630621    -0.79000
Co773      Co  0.17523760  0.43453027  0.00178100     1.51500
Co774      Co  0.26806911  0.42782973  0.50399674     1.51700
Co775      Co  0.24827467  0.47660151  0.97949197     1.51600
Co776      Co  0.18138191  0.36078977  0.52841243     1.51500
O777        O  0.21073045  0.41086921  0.49811525    -1.40900
C778        C  0.16963959  0.42243410  0.56294436     1.10600
C779        C  0.33155215  0.49563572  0.00909192     1.10700
C780        C  0.19085809  0.50691131  0.00244629     1.10600
C781        C  0.25405584  0.41693436  0.56474772     1.10600
O782        O  0.46965521  0.14387454  0.00206141    -0.79000
O783        O  0.44538087  0.25907331  0.54308508    -0.79000
O784        O  0.50318872  0.29225700  0.00555228    -0.79000
O785        O  0.38140525  0.14895705  0.55437768    -0.79000
O786        O  0.46314568  0.32097095  0.50344946    -0.79100
O787        O  0.44684058  0.18248876  0.54247902    -0.79000
O788        O  0.38032301  0.22189968  0.55578010    -0.79000
O789        O  0.50558969  0.21377698  0.00558065    -0.79000
C790        C  0.50381405  0.17778583  0.00611244     1.10700
C791        C  0.41757230  0.24857680  0.56220162     1.10600
C792        C  0.49840147  0.32461841  0.00737452     1.10700
C793        C  0.41888432  0.16250183  0.56112768     1.10600
O794        O  0.38403594  0.10971808  0.00970974    -0.79000
O795        O  0.41258240  0.26544523  0.96122253    -0.79100
O796        O  0.47300479  0.20069960  0.94612749    -0.79000
O797        O  0.33336678  0.19940245  0.50114596    -0.79000
O798        O  0.37993647  0.26441424  0.51232929    -0.79100
O799        O  0.41746244  0.14487364  0.95982014    -0.79000
O800        O  0.33549945  0.12500418  0.49970187    -0.79000
O801        O  0.46927915  0.26950905  0.94653940    -0.79000
Co802      Co  0.43353324  0.16606212  0.00047968     1.51500
Co803      Co  0.43042794  0.26158381  0.50138643     1.51700
Co804      Co  0.47839901  0.23900156  0.97912502     1.51600
Co805      Co  0.36126423  0.17579322  0.52515850     1.51500
O806        O  0.41210729  0.20322579  0.49576088    -1.40900
C807        C  0.34720925  0.09834757  0.50184901     1.10600
C808        C  0.43863537  0.27364537  0.94132842     1.10700
C809        C  0.44384041  0.16451205  0.94033174     1.10600
C810        C  0.34323630  0.23729533  0.50496916     1.10600
C811        C  0.31261126  0.24984012  0.50244036    -0.17400
C812        C  0.28987946  0.26424510  0.50208807     0.06700
C813        C  0.26725362  0.28553998  0.50315892     0.08500
C814        C  0.25213803  0.30767472  0.50511984    -0.18200
C815        C  0.37140008  0.53058129  0.01639742    -0.17400
C816        C  0.40455695  0.56214438  0.01922754     0.06700
C817        C  0.44224014  0.60073417  0.01856987     0.08500
C818        C  0.47303040  0.63435180  0.01476726    -0.18200
C819        C  0.25938062  0.93474366  0.49430097    -0.17400
C820        C  0.27475986  0.97242556  0.49274772     0.06700
C821        C  0.29676034  0.01689488  0.49373178     0.08500
C822        C  0.31843076  0.05450132  0.49651115    -0.18200
C823        C  0.21991544  0.65990655  0.99147850    -0.17400
C824        C  0.21274917  0.62451988  0.99446412     0.06100
C825        C  0.20162969  0.58254177  0.99941151     0.08500
C826        C  0.19388293  0.54698105  0.00252600    -0.18200
C827        C  0.36212319  0.81969443  0.00727879    -0.17400
C828        C  0.39448428  0.82046773  0.01094153     0.06700
C829        C  0.43302999  0.82213315  0.01289418     0.08500
C830        C  0.46561888  0.82281950  0.01169097    -0.18200
C831        C  0.74680853  0.06437416  0.49458302    -0.17400
C832        C  0.73145281  0.02665844  0.49310450     0.06700
C833        C  0.70961992  0.98213892  0.49414398     0.08500
C834        C  0.68812607  0.94447625  0.49692407    -0.18200
C835        C  0.94366496  0.26347129  0.49616858    -0.17400
C836        C  0.98091999  0.27888345  0.49464903     0.06700
C837        C  0.02489894  0.30020209  0.49585831     0.08500
C838        C  0.06216681  0.32093328  0.49884800    -0.18200
C839        C  0.64423583  0.17971480  0.00786403    -0.17400
C840        C  0.61196384  0.17902737  0.01170136     0.06700
C841        C  0.57342861  0.17731690  0.01361007     0.08500
C842        C  0.54082569  0.17651725  0.01215444    -0.18200
C843        C  0.06266287  0.73622564  0.49599147    -0.17400
C844        C  0.02543539  0.72079225  0.49437668     0.06700
C845        C  0.98148595  0.69933530  0.49564204     0.08500
C846        C  0.94426744  0.67844949  0.49877629    -0.18200
C847        C  0.69346710  0.74855542  0.50155244    -0.17400
C848        C  0.71611521  0.73405067  0.50114224     0.06700
C849        C  0.73867814  0.71268973  0.50221144     0.08500
C850        C  0.75381374  0.69058388  0.50426628    -0.18200
C851        C  0.81331668  0.45234182  0.00270657    -0.17400
C852        C  0.80532221  0.41676400  0.99926035     0.06700
C853        C  0.79373588  0.37475088  0.99395600     0.08500
C854        C  0.78616783  0.33926199  0.99081824    -0.18200
C855        C  0.63522118  0.46790169  0.01615366    -0.17400
C856        C  0.60193183  0.43653540  0.01919245     0.06700
C857        C  0.56400946  0.39814400  0.01885882     0.08500
C858        C  0.53305732  0.36458144  0.01528165    -0.18200
C859        C  0.46208349  0.34589473  0.65569696    -0.17400
C860        C  0.45169282  0.32052448  0.63592697     0.06700
C861        C  0.43867657  0.29197707  0.61193328     0.08500
C862        C  0.42806299  0.27001764  0.59017540    -0.18200
C863        C  0.46019711  0.35113319  0.84121982    -0.17400
C864        C  0.45032852  0.33020661  0.86335224     0.06700
C865        C  0.44031670  0.30739685  0.88999404     0.08500
C866        C  0.43592896  0.29020295  0.91339676    -0.18200
C867        C  0.65606288  0.54228624  0.65708872    -0.17400
C868        C  0.68104360  0.55057182  0.63762151     0.06700
C869        C  0.70917936  0.56163813  0.61388341     0.08500
C870        C  0.73088049  0.57123931  0.59225014    -0.18200
C871        C  0.64703237  0.54434487  0.84343447    -0.17400
C872        C  0.66711310  0.55322397  0.86594165     0.06700
C873        C  0.68987877  0.56315480  0.89268190     0.08500
C874        C  0.70768979  0.56775693  0.91586644    -0.18200
C875        C  0.57830326  0.72742658  0.58952573    -0.17400
C876        C  0.56784468  0.70533623  0.61123566     0.06700
C877        C  0.55498755  0.67684845  0.63528843     0.08500
C878        C  0.54464386  0.65162489  0.65517234    -0.18200
C879        C  0.54596850  0.64740587  0.84081954    -0.17400
C880        C  0.55559593  0.66858434  0.86283112     0.06700
C881        C  0.56540638  0.69165422  0.88936568     0.08500
C882        C  0.56981121  0.70898520  0.91272453    -0.18200
C883        C  0.35037967  0.45551140  0.65716307    -0.17400
C884        C  0.32542541  0.44741972  0.63772228     0.06700
C885        C  0.29727741  0.43667738  0.61403671     0.08500
C886        C  0.27549848  0.42731339  0.59246906    -0.18200
C887        C  0.29964064  0.43061499  0.91632948    -0.17400
C888        C  0.31753473  0.43529447  0.89315685     0.06700
C889        C  0.34027114  0.44532646  0.86637904     0.08500
C890        C  0.36020736  0.45419963  0.84378663    -0.18200
C891        C  0.89147122  0.53399843  0.65691073    -0.17400
C892        C  0.87667593  0.54314312  0.63638648     0.06700
C893        C  0.86078117  0.55500704  0.61196615     0.08500
C894        C  0.84876030  0.56531959  0.59041891    -0.18200
C895        C  0.89415643  0.53688800  0.84387581    -0.17400
C896        C  0.88135230  0.54618156  0.86525948     0.06700
C897        C  0.86644506  0.55559835  0.89102137     0.08500
C898        C  0.85239555  0.55982064  0.91382546    -0.18200
C899        C  0.85868873  0.26429486  0.59882447    -0.17400
C900        C  0.86937991  0.28391516  0.62148504     0.06700
C901        C  0.88314594  0.31243882  0.64522775     0.08500
C902        C  0.89749084  0.33920140  0.66395759    -0.18200
C903        C  0.90832255  0.35522868  0.84830840    -0.17400
C904        C  0.89621256  0.33475869  0.87074615     0.06700
C905        C  0.88174243  0.31105669  0.89717386     0.08500
C906        C  0.86734016  0.29188351  0.91987311    -0.18200
C907        C  0.11595832  0.46585662  0.65700925    -0.17400
C908        C  0.13058675  0.45666864  0.63638646     0.06700
C909        C  0.14623347  0.44476924  0.61181897     0.08500
C910        C  0.15803294  0.43437821  0.59018005    -0.18200
C911        C  0.11326758  0.46340016  0.84394840    -0.17400
C912        C  0.12616634  0.45399363  0.86522149     0.06700
C913        C  0.14117959  0.44429657  0.89080716     0.08500
C914        C  0.15523891  0.43972300  0.91348570    -0.18200
C915        C  0.10984865  0.66063474  0.66385958    -0.17400
C916        C  0.12394091  0.68762235  0.64530133     0.06700
C917        C  0.13720660  0.71637664  0.62175004     0.08500
C918        C  0.14754654  0.73602044  0.59911200    -0.18200
C919        C  0.13844870  0.70695805  0.92036410    -0.17400
C920        C  0.12436266  0.68800736  0.89755948     0.06700
C921        C  0.11040212  0.66475723  0.87093127     0.08500
C922        C  0.09869739  0.64470867  0.84830744    -0.18200
C923        C  0.27204396  0.84668249  0.59222002    -0.17400
C924        C  0.29339260  0.85786719  0.61402479     0.06700
C925        C  0.32242238  0.87237207  0.63731637     0.08500
C926        C  0.34880536  0.88673072  0.65613315    -0.18200
C927        C  0.30042669  0.85227750  0.91147626    -0.17400
C928        C  0.31884763  0.86894118  0.88924896     0.06700
C929        C  0.34174454  0.88458166  0.86313221     0.08500
C930        C  0.36184952  0.89664195  0.84090374    -0.18200
C931        C  0.57683864  0.84591991  0.58919615    -0.17400
C932        C  0.56666698  0.85700325  0.61106170     0.06700
C933        C  0.55468131  0.87290757  0.63502415     0.08500
C934        C  0.54576630  0.88899613  0.65461338    -0.18200
C935        C  0.56412595  0.85371280  0.91241213    -0.17400
C936        C  0.55997838  0.86696039  0.88907309     0.06700
C937        C  0.55193324  0.88134087  0.86230881     0.08500
C938        C  0.54475438  0.89438463  0.83997427    -0.18200
C939        C  0.65815961  0.11226297  0.65667276    -0.17400
C940        C  0.68436630  0.12682956  0.63771526     0.06700
C941        C  0.71309503  0.14161372  0.61420408     0.08500
C942        C  0.73421755  0.15292549  0.59226909    -0.18200
C943        C  0.70528507  0.14617748  0.91164686    -0.17400
C944        C  0.68679777  0.12928042  0.88951458     0.06700
C945        C  0.66374942  0.11342548  0.86351132     0.08500
C946        C  0.64351914  0.10127944  0.84136705    -0.18200
C947        C  0.46135429  0.10949501  0.65420010    -0.17400
C948        C  0.45234188  0.12543763  0.63458337     0.06700
C949        C  0.44004697  0.14112328  0.61068785     0.08500
C950        C  0.42960730  0.15212824  0.58893293    -0.18200
C951        C  0.46097264  0.10381455  0.83989742    -0.17400
C952        C  0.45424614  0.11717722  0.86227313     0.06700
C953        C  0.44682824  0.13212665  0.88903429     0.08500
C954        C  0.44296379  0.14573056  0.91231747    -0.18200
loop_ 
_geom_bond_atom_site_label_1 
_geom_bond_atom_site_label_2 
_geom_bond_distance 
_geom_bond_site_symmetry_2 
_ccdc_geom_bond_type 
C1           N19   1.351       .  A
C1           C38   1.452       .  S
C1          C474   1.441       .  S
N2           N19   1.328       .  A
N2           N24   1.320       .  A
N2          Co39   2.097       .  S
C3           N28   1.344       .  A
C3           C41   1.459       .  S
C3           H48   1.082       .  S
H4           C45   1.081       .  S
C5           N29   1.340       .  A
C5            C9   1.451       .  S
C5           H34   1.081       .  S
Co6          N24   2.078   1_565  S
Co6          N14   2.073       .  S
Co6          N46   2.079   1_565  S
Co6          N22   2.075       .  S
Co6         Cl50   2.441       .  S
N7           C45   1.341       .  A
N7           N14   1.321       .  A
N7           Co8   2.082       .  S
Co8          N11   2.098       .  S
Co8          N28   2.094       .  S
Co8          N15   2.090       .  S
Co8         Cl50   2.463       .  S
C9           N47   1.352       .  A
C9          C461   1.441       .  S
N10          N17   1.321       .  A
N10          N40   1.321       .  A
N10         Co43   2.072       .  S
N11          N29   1.320       .  A
N11          N47   1.328       .  A
N12          C41   1.344       .  A
N12          N22   1.323       .  A
H13          C38   1.081       .  S
N14          N35   1.322       .  A
N15          N33   1.321       .  A
N15          N20   1.326       .  A
C16          N20   1.349       .  A
C16          C44   1.452       .  S
C16         C457   1.435       .  S
N17          C32   1.341       .  A
N17         Co39   2.081       .  S
C18          N46   1.339       .  A
C18          C21   1.451       .  S
C18          H52   1.082       .  S
C21          N42   1.349       .  A
C21         C470   1.434       .  S
N22          N28   1.322       .  A
N23          C49   1.344       .  A
N23          N25   1.322       .  A
N23         Co39   2.093       .  S
N24          C38   1.340       .  A
N25          N53   1.323       .  A
N25         Co43   2.075       .  S
H26          C49   1.082       .  S
H27          C44   1.082       .  S
N29         Co43   2.077   1_565  S
N30          N42   1.326       .  A
N30          N46   1.321       .  A
N30         Co39   2.090       .  S
C31          N35   1.342       .  A
C31          C45   1.454       .  S
C31         C453   1.426       .  S
C32          C51   1.454       .  S
C32          H36   1.081       .  S
N33          C44   1.339       .  A
N33         Co43   2.079   1_565  S
C37          N53   1.344       .  A
C37          C49   1.459       .  S
C37         C462   1.435       .  S
Co39        Cl50   2.463   1_545  S
N40          C51   1.342       .  A
C41         C449   1.435       .  S
Co43        Cl50   2.441   1_545  S
C51         C469   1.425       .  S
C54          N72   1.353       .  A
C54          C91   1.451       .  S
C54         C445   1.443       .  S
N55          N72   1.329       .  A
N55          N77   1.322       .  A
N55         Co92   2.106       .  S
C56          N81   1.347       .  A
C56          C94   1.463       .  S
C56         H101   1.082       .  S
H57          C98   1.082       .  S
C58          N82   1.340       .  A
C58          C62   1.451       .  S
C58          H87   1.081       .  S
Co59         N77   2.085   1_655  S
Co59         N67   2.069       .  S
Co59         N99   2.066   1_655  S
Co59         N75   2.094       .  S
Co59       Cl103   2.446   1_655  S
N60          C98   1.344       .  A
N60          N67   1.320       .  A
N60         Co61   2.093       .  S
Co61         N64   2.106       .  S
Co61         N81   2.108       .  S
Co61         N68   2.093       .  S
Co61       Cl103   2.464   1_655  S
C62         N100   1.353       .  A
C62         C426   1.443       .  S
N63          N70   1.320       .  A
N63          N93   1.323       .  A
N63         Co96   2.070       .  S
N64          N82   1.322       .  A
N64         N100   1.329       .  A
N65          C94   1.349       .  A
N65          N75   1.327       .  A
H66          C91   1.081       .  S
N67          N88   1.323       .  A
N68          N86   1.321       .  A
N68          N73   1.327       .  A
C69          N73   1.350       .  A
C69          C97   1.447       .  S
C69         C425   1.432       .  S
N70          C85   1.344       .  A
N70         Co92   2.092       .  S
C71          N99   1.336       .  A
C71          C74   1.447       .  S
C71         H105   1.082       .  S
C74          N95   1.350       .  A
C74         C438   1.430       .  S
N75          N81   1.323       .  A
N76         C102   1.347       .  A
N76          N78   1.323       .  A
N76         Co92   2.108       .  S
N77          C91   1.340       .  A
N78         N106   1.327       .  A
N78         Co96   2.094       .  S
H79         C102   1.082       .  S
H80          C97   1.082       .  S
N82         Co96   2.084   1_655  S
N83          N95   1.327       .  A
N83          N99   1.321       .  A
N83         Co92   2.092       .  S
C84          N88   1.343       .  A
C84          C98   1.459       .  S
C84         C418   1.435       .  S
C85         C104   1.459       .  S
C85          H89   1.082       .  S
N86          C97   1.336       .  A
N86         Co96   2.068   1_655  S
C90         N106   1.349       .  A
C90         C102   1.463       .  S
C90         C430   1.451       .  S
Co92       Cl103   2.464       .  S
N93         C104   1.343       .  A
C94         C414   1.451       .  S
Co96       Cl103   2.446       .  S
C104        C434   1.435       .  S
C107        N125   1.354       .  A
C107        C144   1.449       .  S
C107        C413   1.443       .  S
N108        N125   1.330       .  A
N108        N130   1.321       .  A
N108       Co145   2.107       .  S
C109        N134   1.345       .  A
C109        C147   1.460       .  S
C109        H154   1.081       .  S
H110        C151   1.081       .  S
C111        N135   1.339       .  A
C111        C115   1.449       .  S
C111        H140   1.081       .  S
Co112       N130   2.079       .  S
Co112       N120   2.075       .  S
Co112       N152   2.079       .  S
Co112       N128   2.085       .  S
Co112      Cl156   2.447       .  S
N113        C151   1.344       .  A
N113        N120   1.321       .  A
N113       Co114   2.090       .  S
Co114       N117   2.107       .  S
Co114       N134   2.102       .  S
Co114       N121   2.090       .  S
Co114      Cl156   2.463       .  S
C115        N153   1.354       .  A
C115        C394   1.443       .  S
N116        N123   1.321       .  A
N116        N146   1.323       .  A
N116       Co149   2.077       .  S
N117        N135   1.321       .  A
N117        N153   1.330       .  A
N118        C147   1.347       .  A
N118        N128   1.325       .  A
H119        C144   1.081       .  S
N120        N141   1.323       .  A
N121        N139   1.321       .  A
N121        N126   1.326       .  A
C122        N126   1.349       .  A
C122        C150   1.452       .  S
C122        C390   1.436       .  S
N123        C138   1.344       .  A
N123       Co145   2.090       .  S
C124        N152   1.340       .  A
C124        C127   1.453       .  S
C124        H158   1.081       .  S
C127        N148   1.349       .  A
C127        C406   1.437       .  S
N128        N134   1.322       .  A
N129        C155   1.345       .  A
N129        N131   1.322       .  A
N129       Co145   2.102       .  S
N130        C144   1.339       .  A
N131        N159   1.325       .  A
N131       Co149   2.085       .  S
H132        C155   1.081       .  S
H133        C150   1.081       .  S
N135       Co149   2.079       .  S
N136        N148   1.326       .  A
N136        N152   1.321       .  A
N136       Co145   2.090       .  S
C137        N141   1.343       .  A
C137        C151   1.459       .  S
C137        C386   1.434       .  S
C138        C157   1.458       .  S
C138        H142   1.081       .  S
N139        C150   1.340       .  A
N139       Co149   2.079       .  S
C143        N159   1.347       .  A
C143        C155   1.460       .  S
C143        C401   1.443       .  S
Co145      Cl156   2.463       .  S
N146        C157   1.344       .  A
C147        C382   1.443       .  S
Co149      Cl156   2.447       .  S
C157        C402   1.435       .  S
O160        C168   1.290       .  A
O160       Co180   2.049       .  S
O161        C169   1.265       .  A
O161       Co181   2.016       .  S
O162        C170   1.256       .  A
O162       Co659   1.994       .  S
O163        C648   1.266       .  A
O163       Co183   1.897       .  S
O164        C170   1.267       .  A
O164       Co181   2.030       .  S
O165        C171   1.295       .  A
O165       Co180   2.075       .  S
O166        C169   1.254       .  A
O166       Co183   1.986       .  S
O167        C168   1.270       .  A
O167       Co182   1.903       .  S
C168        C374   1.423       .  S
C169        C393   1.435       .  S
C170        C417   1.449       .  S
C171        C378   1.431       .  S
C171        O640   1.266       .  A
O172        C185   1.249       .  A
O172       Co180   1.988       .  S
O173        C186   1.267       .  A
O173       Co181   1.991       .  S
O174        C187   1.244       .  A
O174       Co182   1.969       .  S
O175        C188   1.266       .  A
O175       Co183   1.997       .  S
O176        C188   1.266       .  A
O176       Co181   1.992       .  S
O177        C187   1.251       .  A
O177       Co180   1.993       .  S
O178        C185   1.249       .  A
O178       Co660   1.984       .  S
O179        C663   1.268       .  A
O179       Co182   2.004       .  S
Co180       O661   2.261       .  S
Co181       O184   2.109   1_554  S
Co182       O639   1.994       .  S
Co182       O661   1.928       .  S
Co183       O655   1.984   1_554  S
Co183       O184   1.921   1_554  S
O184       Co657   2.261       .  S
O184       Co659   1.928   1_556  S
C185        C397   1.441       .  S
C186        C369   1.441   1_554  S
C186        O656   1.268       .  A
C187        C421   1.433       .  S
C188        C373   1.438       .  S
O189        C197   1.293       .  A
O189       Co209   2.108       .  S
O190        C198   1.270       .  A
O190       Co210   2.025       .  S
O191        C199   1.262       .  A
O191       Co688   1.960       .  S
O192        C677   1.248   1_554  A
O192       Co212   1.963       .  S
O193        C199   1.278       .  A
O193       Co210   2.034       .  S
O194        C200   1.256       .  A
O194       Co209   2.003       .  S
O195        C198   1.254       .  A
O195       Co212   1.949       .  S
O196        C197   1.261       .  A
O196       Co211   1.899       .  S
C197        C362   1.434       .  S
C198        C422   1.430       .  S
C199        C465   1.433       .  S
C200        C377   1.423       .  S
C200        O669   1.248       .  A
O201        C214   1.268       .  A
O201       Co209   1.971       .  S
O202        C215   1.261       .  A
O202       Co210   1.992   1_556  S
O203        C216   1.293       .  A
O203       Co211   2.098       .  S
O204        C217   1.272       .  A
O204       Co212   2.014       .  S
O205        C217   1.267   1_556  A
O205       Co210   1.979   1_556  S
O206        C216   1.262       .  A
O206       Co209   1.884       .  S
O207        C214   1.279       .  A
O207       Co689   2.036       .  S
O208        C692   1.261       .  A
O208       Co211   1.996       .  S
Co209       O690   2.016       .  S
Co210       O213   2.051       .  S
Co211       O668   1.960       .  S
Co211       O690   1.996       .  S
Co212       O684   2.036   1_554  S
Co212       O213   2.013       .  S
O213       Co686   2.016   1_554  S
O213       Co688   1.996       .  S
C214        C429   1.442       .  S
C215        C354   1.440       .  S
C215        O685   1.261   1_556  A
C216        C466   1.424       .  S
C217        C358   1.441   1_554  S
O218        C226   1.293       .  A
O218       Co238   2.110       .  S
O219        C227   1.270       .  A
O219       Co239   2.023       .  S
O220        C228   1.262       .  A
O220       Co717   1.959       .  S
O221        C706   1.248   1_554  A
O221       Co241   1.963       .  S
O222        C228   1.278       .  A
O222       Co239   2.035       .  S
O223        C229   1.256       .  A
O223       Co238   2.003       .  S
O224        C227   1.254       .  A
O224       Co241   1.948       .  S
O225        C226   1.261       .  A
O225       Co240   1.899       .  S
C226        C350   1.435       .  S
C227        C441   1.428       .  S
C228        C446   1.433       .  S
C229        C346   1.424       .  S
C229        O698   1.248       .  A
O230        C243   1.268       .  A
O230       Co238   1.971       .  S
O231        C244   1.260       .  A
O231       Co239   1.990   1_556  S
O232        C245   1.294       .  A
O232       Co240   2.099       .  S
O233        C246   1.272       .  A
O233       Co241   2.013       .  S
O234        C246   1.266   1_556  A
O234       Co239   1.978   1_556  S
O235        C245   1.262       .  A
O235       Co238   1.883       .  S
O236        C243   1.279       .  A
O236       Co718   2.036       .  S
O237        C721   1.260       .  A
O237       Co240   1.995       .  S
Co238       O719   2.015       .  S
Co239       O242   2.050       .  S
Co240       O697   1.959       .  S
Co240       O719   1.996       .  S
Co241       O713   2.036   1_554  S
Co241       O242   2.013       .  S
O242       Co715   2.015   1_554  S
O242       Co717   1.996       .  S
C243        C442   1.441       .  S
C244        C342   1.438       .  S
C244        O714   1.260   1_556  A
C245        C450   1.424       .  S
C246        C366   1.440   1_554  S
O247        C255   1.269       .  A
O247       Co267   1.901       .  S
O248        C256   1.254       .  A
O248       Co268   1.989       .  S
O249        C257   1.296       .  A
O249       Co269   2.076       .  S
O250        C258   1.263       .  A
O250       Co270   2.014       .  S
O251        C734   1.266       .  A
O251       Co268   1.895       .  S
O252        C258   1.253       .  A
O252       Co744   1.985       .  S
O253        C256   1.266       .  A
O253       Co270   2.026       .  S
O254        C255   1.295       .  A
O254       Co269   2.072       .  S
C255        C353   1.434       .  S
C256        C398   1.442       .  S
C257        C341   1.430       .  S
C257        O728   1.266       .  A
C258        C454   1.433       .  S
O259        C749   1.269       .  A
O259       Co267   2.006       .  S
O260        C273   1.246       .  A
O260       Co745   1.971       .  S
O261        C274   1.251       .  A
O261       Co269   1.996       .  S
O262        C275   1.265       .  A
O262       Co270   1.988       .  S
O263        C275   1.266       .  A
O263       Co268   2.002       .  S
O264        C274   1.247       .  A
O264       Co267   1.975       .  S
O265        C272   1.266   1_556  A
O265       Co270   1.989   1_556  S
O266        C273   1.251       .  A
O266       Co269   1.990       .  S
Co267       O729   1.985       .  S
Co267       O748   1.917       .  S
Co268       O737   1.971   1_554  S
Co268       O271   1.917   1_554  S
Co269       O748   2.266       .  S
Co270       O271   2.112   1_554  S
O271       Co744   1.917   1_556  S
O271       Co746   2.266       .  S
C272        C357   1.441   1_554  S
C272        O736   1.269       .  A
C273        C405   1.433       .  S
C274        C458   1.439       .  S
C275        C370   1.439       .  S
O276        C284   1.245       .  A
O276       Co296   1.969       .  S
O277        C285   1.266       .  A
O277       Co297   1.997       .  S
O278        C286   1.249       .  A
O278       Co298   1.987       .  S
O279        C287   1.267       .  A
O279       Co299   1.992       .  S
O280        C286   1.249       .  A
O280       Co774   1.984       .  S
O281        C764   1.268       .  A
O281       Co296   2.004       .  S
O282        C285   1.267       .  A
O282       Co299   1.992       .  S
O283        C284   1.251       .  A
O283       Co298   1.994       .  S
C284        C437   1.434       .  S
C285        C337   1.439       .  S
C286        C410   1.441       .  S
C287        C361   1.442   1_554  S
C287        O758   1.268       .  A
O288        C301   1.256       .  A
O288       Co773   1.995       .  S
O289        C779   1.266       .  A
O289       Co297   1.897       .  S
O290        C303   1.290       .  A
O290       Co298   2.050       .  S
O291        C304   1.265       .  A
O291       Co299   2.017       .  S
O292        C304   1.254       .  A
O292       Co297   1.987       .  S
O293        C303   1.270       .  A
O293       Co296   1.903       .  S
O294        C301   1.267       .  A
O294       Co299   2.029       .  S
O295        C302   1.295       .  A
O295       Co298   2.073       .  S
Co296       O765   1.995       .  S
Co296       O777   1.928       .  S
Co297       O757   1.984   1_554  S
Co297       O300   1.921   1_554  S
Co298       O777   2.262       .  S
Co299       O300   2.110   1_554  S
O300       Co773   1.928   1_556  S
O300       Co775   2.262       .  S
C301        C433   1.449       .  S
C302        C338   1.430       .  S
C302        O766   1.266       .  A
C303        C349   1.424       .  S
C304        C409   1.435       .  S
O305        C313   1.269       .  A
O305       Co325   1.900       .  S
O306        C314   1.254       .  A
O306       Co326   1.988       .  S
O307        C315   1.296       .  A
O307       Co327   2.077       .  S
O308        C316   1.263       .  A
O308       Co328   2.014       .  S
O309        C792   1.266       .  A
O309       Co326   1.895       .  S
O310        C316   1.253       .  A
O310       Co802   1.985       .  S
O311        C314   1.266       .  A
O311       Co328   2.026       .  S
O312        C313   1.295       .  A
O312       Co327   2.072       .  S
C313        C365   1.433       .  S
C314        C385   1.441       .  S
C315        C381   1.431       .  S
C315        O786   1.266       .  A
C316        C473   1.433       .  S
O317        C807   1.269       .  A
O317       Co325   2.006       .  S
O318        C331   1.246       .  A
O318       Co803   1.970       .  S
O319        C332   1.251       .  A
O319       Co327   1.997       .  S
O320        C333   1.264       .  A
O320       Co328   1.987       .  S
O321        C333   1.266       .  A
O321       Co326   2.002       .  S
O322        C332   1.246       .  A
O322       Co325   1.975       .  S
O323        C330   1.266   1_556  A
O323       Co328   1.986   1_556  S
O324        C331   1.251       .  A
O324       Co327   1.989       .  S
Co325       O787   1.985       .  S
Co325       O806   1.917       .  S
Co326       O795   1.970   1_554  S
Co326       O329   1.917   1_554  S
Co327       O806   2.265       .  S
Co328       O329   2.112   1_554  S
O329       Co802   1.917   1_556  S
O329       Co804   2.265       .  S
C330        C345   1.439   1_554  S
C330        O794   1.269       .  A
C331        C389   1.432       .  S
C332        C477   1.440       .  S
C333        C334   1.439       .  S
C334        C335   1.208       .  T
C335        C336   1.416       .  S
C336        C337   1.208       .  T
C338        C339   1.203       .  T
C339        C340   1.407       .  S
C340        C341   1.203       .  T
C342        C343   1.208       .  T
C343        C344   1.415   1_565  S
C344        C345   1.208       .  T
C346        C347   1.200       .  T
C347        C348   1.403       .  S
C348        C349   1.200       .  T
C350        C351   1.206       .  T
C351        C352   1.412       .  S
C352        C353   1.205       .  T
C354        C355   1.209       .  T
C355        C356   1.417   1_545  S
C356        C357   1.209       .  T
C358        C359   1.209       .  T
C359        C360   1.418   1_655  S
C360        C361   1.210       .  T
C362        C363   1.205       .  T
C363        C364   1.411       .  S
C364        C365   1.205       .  T
C366        C367   1.209       .  T
C367        C368   1.417   1_455  S
C368        C369   1.209       .  T
C370        C371   1.208       .  T
C371        C372   1.416       .  S
C372        C373   1.208       .  T
C374        C375   1.200       .  T
C375        C376   1.403       .  S
C376        C377   1.200       .  T
C378        C379   1.203       .  T
C379        C380   1.408       .  S
C380        C381   1.203       .  T
C382        C383   1.210       .  T
C383        C384   1.419       .  S
C384        C385   1.209       .  T
C386        C387   1.205       .  T
C387        C388   1.410       .  S
C388        C389   1.204       .  T
C390        C391   1.206       .  T
C391        C392   1.412       .  S
C392        C393   1.206       .  T
C394        C395   1.210       .  T
C395        C396   1.419       .  S
C396        C397   1.210       .  T
C398        C399   1.210       .  T
C399        C400   1.419       .  S
C400        C401   1.210       .  T
C402        C403   1.205       .  T
C403        C404   1.411       .  S
C404        C405   1.205       .  T
C406        C407   1.206       .  T
C407        C408   1.413       .  S
C408        C409   1.206       .  T
C410        C411   1.210       .  T
C411        C412   1.419       .  S
C412        C413   1.210       .  T
C414        C415   1.214       .  T
C415        C416   1.426       .  S
C416        C417   1.214       .  T
C418        C419   1.205       .  T
C419        C420   1.411       .  S
C420        C421   1.205       .  T
C422        C423   1.203       .  T
C423        C424   1.409       .  S
C424        C425   1.204       .  T
C426        C427   1.210       .  T
C427        C428   1.419       .  S
C428        C429   1.210       .  T
C430        C431   1.214       .  T
C431        C432   1.426       .  S
C432        C433   1.214       .  T
C434        C435   1.205       .  T
C435        C436   1.412       .  S
C436        C437   1.205       .  T
C438        C439   1.202       .  T
C439        C440   1.407       .  S
C440        C441   1.202       .  T
C442        C443   1.210       .  T
C443        C444   1.419       .  S
C444        C445   1.210       .  T
C446        C447   1.205       .  T
C447        C448   1.411       .  S
C448        C449   1.205       .  T
C450        C451   1.200       .  T
C451        C452   1.403       .  S
C452        C453   1.200       .  T
C454        C455   1.205       .  T
C455        C456   1.411       .  S
C456        C457   1.205       .  T
C458        C459   1.208       .  T
C459        C460   1.417       .  S
C460        C461   1.208       .  T
C462        C463   1.205       .  T
C463        C464   1.412       .  S
C464        C465   1.205       .  T
C466        C467   1.199       .  T
C467        C468   1.402       .  S
C468        C469   1.199       .  T
C470        C471   1.205       .  T
C471        C472   1.411       .  S
C472        C473   1.205       .  T
C474        C475   1.209       .  T
C475        C476   1.417       .  S
C476        C477   1.209       .  T
C478        N496   1.351       .  A
C478        C515   1.452       .  S
C478        C951   1.441       .  S
N479        N496   1.328       .  A
N479        N501   1.320       .  A
N479       Co516   2.097       .  S
C480        N505   1.344       .  A
C480        C518   1.459       .  S
C480        H525   1.082       .  S
H481        C522   1.081       .  S
C482        N506   1.340       .  A
C482        C486   1.451       .  S
C482        H511   1.081       .  S
Co483       N501   2.078   1_565  S
Co483       N491   2.073       .  S
Co483       N523   2.079   1_565  S
Co483       N499   2.075       .  S
Co483      Cl527   2.441       .  S
N484        C522   1.341       .  A
N484        N491   1.321       .  A
N484       Co485   2.082       .  S
Co485       N488   2.098       .  S
Co485       N505   2.094       .  S
Co485       N492   2.090       .  S
Co485      Cl527   2.463       .  S
C486        N524   1.352       .  A
C486        C938   1.441       .  S
N487        N494   1.321       .  A
N487        N517   1.321       .  A
N487       Co520   2.072       .  S
N488        N506   1.320       .  A
N488        N524   1.328       .  A
N489        C518   1.344       .  A
N489        N499   1.323       .  A
H490        C515   1.081       .  S
N491        N512   1.322       .  A
N492        N510   1.321       .  A
N492        N497   1.326       .  A
C493        N497   1.349       .  A
C493        C521   1.452       .  S
C493        C934   1.435       .  S
N494        C509   1.341       .  A
N494       Co516   2.081       .  S
C495        N523   1.339       .  A
C495        C498   1.451       .  S
C495        H529   1.082       .  S
C498        N519   1.349       .  A
C498        C947   1.434       .  S
N499        N505   1.322       .  A
N500        C526   1.344       .  A
N500        N502   1.322       .  A
N500       Co516   2.093       .  S
N501        C515   1.340       .  A
N502        N530   1.323       .  A
N502       Co520   2.075       .  S
H503        C526   1.082       .  S
H504        C521   1.082       .  S
N506       Co520   2.077   1_565  S
N507        N519   1.326       .  A
N507        N523   1.321       .  A
N507       Co516   2.090       .  S
C508        N512   1.342       .  A
C508        C522   1.454       .  S
C508        C930   1.426       .  S
C509        C528   1.454       .  S
C509        H513   1.081       .  S
N510        C521   1.339       .  A
N510       Co520   2.079   1_565  S
C514        N530   1.344       .  A
C514        C526   1.459       .  S
C514        C939   1.435       .  S
Co516      Cl527   2.463   1_545  S
N517        C528   1.342       .  A
C518        C926   1.435       .  S
Co520      Cl527   2.441   1_545  S
C528        C946   1.425       .  S
C531        N549   1.353       .  A
C531        C568   1.451       .  S
C531        C922   1.443       .  S
N532        N549   1.329       .  A
N532        N554   1.322       .  A
N532       Co569   2.106       .  S
C533        N558   1.347       .  A
C533        C571   1.463       .  S
C533        H578   1.082       .  S
H534        C575   1.082       .  S
C535        N559   1.340       .  A
C535        C539   1.451       .  S
C535        H564   1.081       .  S
Co536       N554   2.085   1_655  S
Co536       N544   2.069       .  S
Co536       N576   2.066   1_655  S
Co536       N552   2.094       .  S
Co536      Cl580   2.446   1_655  S
N537        C575   1.344       .  A
N537        N544   1.320       .  A
N537       Co538   2.093       .  S
Co538       N541   2.106       .  S
Co538       N558   2.108       .  S
Co538       N545   2.093       .  S
Co538      Cl580   2.464   1_655  S
C539        N577   1.353       .  A
C539        C903   1.443       .  S
N540        N547   1.320       .  A
N540        N570   1.323       .  A
N540       Co573   2.070       .  S
N541        N559   1.322       .  A
N541        N577   1.329       .  A
N542        C571   1.349       .  A
N542        N552   1.327       .  A
H543        C568   1.081       .  S
N544        N565   1.323       .  A
N545        N563   1.321       .  A
N545        N550   1.327       .  A
C546        N550   1.350       .  A
C546        C574   1.447       .  S
C546        C902   1.432       .  S
N547        C562   1.344       .  A
N547       Co569   2.092       .  S
C548        N576   1.336       .  A
C548        C551   1.447       .  S
C548        H582   1.082       .  S
C551        N572   1.350       .  A
C551        C915   1.430       .  S
N552        N558   1.323       .  A
N553        C579   1.347       .  A
N553        N555   1.323       .  A
N553       Co569   2.108       .  S
N554        C568   1.340       .  A
N555        N583   1.327       .  A
N555       Co573   2.094       .  S
H556        C579   1.082       .  S
H557        C574   1.082       .  S
N559       Co573   2.084   1_655  S
N560        N572   1.327       .  A
N560        N576   1.321       .  A
N560       Co569   2.092       .  S
C561        N565   1.343       .  A
C561        C575   1.459       .  S
C561        C895   1.435       .  S
C562        C581   1.459       .  S
C562        H566   1.082       .  S
N563        C574   1.336       .  A
N563       Co573   2.068   1_655  S
C567        N583   1.349       .  A
C567        C579   1.463       .  S
C567        C907   1.451       .  S
Co569      Cl580   2.464       .  S
N570        C581   1.343       .  A
C571        C891   1.451       .  S
Co573      Cl580   2.446       .  S
C581        C911   1.435       .  S
C584        N602   1.354       .  A
C584        C621   1.449       .  S
C584        C890   1.443       .  S
N585        N602   1.330       .  A
N585        N607   1.321       .  A
N585       Co622   2.107       .  S
C586        N611   1.345       .  A
C586        C624   1.460       .  S
C586        H631   1.081       .  S
H587        C628   1.082       .  S
C588        N612   1.339       .  A
C588        C592   1.449       .  S
C588        H617   1.081       .  S
Co589       N607   2.079       .  S
Co589       N597   2.075       .  S
Co589       N629   2.079       .  S
Co589       N605   2.085       .  S
Co589      Cl633   2.447       .  S
N590        C628   1.344       .  A
N590        N597   1.321       .  A
N590       Co591   2.090       .  S
Co591       N594   2.107       .  S
Co591       N611   2.102       .  S
Co591       N598   2.090       .  S
Co591      Cl633   2.463       .  S
C592        N630   1.354       .  A
C592        C871   1.443       .  S
N593        N600   1.321       .  A
N593        N623   1.323       .  A
N593       Co626   2.077       .  S
N594        N612   1.321       .  A
N594        N630   1.330       .  A
N595        C624   1.347       .  A
N595        N605   1.325       .  A
H596        C621   1.081       .  S
N597        N618   1.323       .  A
N598        N616   1.321       .  A
N598        N603   1.326       .  A
C599        N603   1.349       .  A
C599        C627   1.452       .  S
C599        C867   1.436       .  S
N600        C615   1.344       .  A
N600       Co622   2.090       .  S
C601        N629   1.340       .  A
C601        C604   1.453       .  S
C601        H635   1.081       .  S
C604        N625   1.349       .  A
C604        C883   1.437       .  S
N605        N611   1.322       .  A
N606        C632   1.345       .  A
N606        N608   1.322       .  A
N606       Co622   2.102       .  S
N607        C621   1.339       .  A
N608        N636   1.325       .  A
N608       Co626   2.085       .  S
H609        C632   1.081       .  S
H610        C627   1.081       .  S
N612       Co626   2.079       .  S
N613        N625   1.326       .  A
N613        N629   1.321       .  A
N613       Co622   2.090       .  S
C614        N618   1.343       .  A
C614        C628   1.459       .  S
C614        C863   1.434       .  S
C615        C634   1.458       .  S
C615        H619   1.081       .  S
N616        C627   1.340       .  A
N616       Co626   2.079       .  S
C620        N636   1.347       .  A
C620        C632   1.460       .  S
C620        C878   1.443       .  S
Co622      Cl633   2.463       .  S
N623        C634   1.344       .  A
C624        C859   1.443       .  S
Co626      Cl633   2.447       .  S
C634        C879   1.435       .  S
O637        C645   1.290       .  A
O637       Co657   2.049   1_554  S
O638        C646   1.265       .  A
O638       Co658   2.016       .  S
O639        C647   1.256       .  A
O640       Co660   1.897       .  S
O641        C647   1.267       .  A
O641       Co658   2.030       .  S
O642        C648   1.295       .  A
O642       Co657   2.075   1_554  S
O643        C646   1.254       .  A
O643       Co660   1.986       .  S
O644        C645   1.270       .  A
O644       Co659   1.903       .  S
C645        C851   1.423       .  S
C646        C870   1.435       .  S
C647        C894   1.449       .  S
C648        C855   1.431       .  S
O649        C662   1.249       .  A
O649       Co657   1.988       .  S
O650        C663   1.267       .  A
O650       Co658   1.991       .  S
O651        C664   1.244       .  A
O651       Co659   1.969   1_556  S
O652        C665   1.266       .  A
O652       Co660   1.997       .  S
O653        C665   1.266       .  A
O653       Co658   1.992       .  S
O654        C664   1.251       .  A
O654       Co657   1.993       .  S
O655        C662   1.249       .  A
O656       Co659   2.004       .  S
Co658       O661   2.109       .  S
Co660       O661   1.921       .  S
C662        C874   1.441       .  S
C663        C846   1.441       .  S
C664        C898   1.433       .  S
C665        C850   1.438       .  S
O666        C674   1.293   1_556  A
O666       Co686   2.108       .  S
O667        C675   1.270       .  A
O667       Co687   2.025       .  S
O668        C676   1.262       .  A
O669       Co689   1.963       .  S
O670        C676   1.278       .  A
O670       Co687   2.034       .  S
O671        C677   1.256       .  A
O671       Co686   2.003       .  S
O672        C675   1.254       .  A
O672       Co689   1.949       .  S
O673        C674   1.261       .  A
O673       Co688   1.899       .  S
C674        C839   1.434       .  S
C675        C899   1.430       .  S
C676        C942   1.433       .  S
C677        C854   1.423       .  S
O678        C691   1.268       .  A
O678       Co686   1.971       .  S
O679        C692   1.261       .  A
O679       Co687   1.992       .  S
O680        C693   1.293       .  A
O680       Co688   2.098   1_556  S
O681        C694   1.272       .  A
O681       Co689   2.014       .  S
O682        C694   1.267       .  A
O682       Co687   1.979       .  S
O683        C693   1.262       .  A
O683       Co686   1.884       .  S
O684        C691   1.279       .  A
O685       Co688   1.996       .  S
Co687       O690   2.051       .  S
Co689       O690   2.013       .  S
C691        C906   1.442       .  S
C692        C831   1.440       .  S
C693        C943   1.424       .  S
C694        C835   1.441       .  S
O695        C703   1.293   1_556  A
O695       Co715   2.110       .  S
O696        C704   1.270       .  A
O696       Co716   2.023       .  S
O697        C705   1.262       .  A
O698       Co718   1.963       .  S
O699        C705   1.278       .  A
O699       Co716   2.035       .  S
O700        C706   1.256       .  A
O700       Co715   2.003       .  S
O701        C704   1.254       .  A
O701       Co718   1.948       .  S
O702        C703   1.261       .  A
O702       Co717   1.899       .  S
C703        C827   1.435       .  S
C704        C918   1.428       .  S
C705        C923   1.433       .  S
C706        C823   1.424       .  S
O707        C720   1.268       .  A
O707       Co715   1.971       .  S
O708        C721   1.260       .  A
O708       Co716   1.990       .  S
O709        C722   1.294       .  A
O709       Co717   2.099   1_556  S
O710        C723   1.272       .  A
O710       Co718   2.013       .  S
O711        C723   1.266       .  A
O711       Co716   1.978       .  S
O712        C722   1.262       .  A
O712       Co715   1.883       .  S
O713        C720   1.279       .  A
O714       Co717   1.995       .  S
Co716       O719   2.050       .  S
Co718       O719   2.013       .  S
C720        C919   1.441       .  S
C721        C819   1.438       .  S
C722        C927   1.424       .  S
C723        C843   1.440       .  S
O724        C732   1.269       .  A
O724       Co744   1.901       .  S
O725        C733   1.254       .  A
O725       Co745   1.989       .  S
O726        C734   1.296       .  A
O726       Co746   2.076   1_554  S
O727        C735   1.263       .  A
O727       Co747   2.014       .  S
O728       Co745   1.895       .  S
O729        C735   1.253       .  A
O730        C733   1.266       .  A
O730       Co747   2.026       .  S
O731        C732   1.295       .  A
O731       Co746   2.072   1_554  S
C732        C830   1.434       .  S
C733        C875   1.442       .  S
C734        C818   1.430       .  S
C735        C931   1.433       .  S
O736       Co744   2.006       .  S
O737        C750   1.246       .  A
O738        C751   1.251       .  A
O738       Co746   1.996       .  S
O739        C752   1.265       .  A
O739       Co747   1.988       .  S
O740        C752   1.266       .  A
O740       Co745   2.002       .  S
O741        C751   1.247       .  A
O741       Co744   1.975   1_556  S
O742        C749   1.266       .  A
O742       Co747   1.989       .  S
O743        C750   1.251       .  A
O743       Co746   1.990       .  S
Co745       O748   1.917       .  S
Co747       O748   2.112       .  S
C749        C834   1.441       .  S
C750        C882   1.433       .  S
C751        C935   1.439       .  S
C752        C847   1.439       .  S
O753        C761   1.245       .  A
O753       Co773   1.969   1_556  S
O754        C762   1.266       .  A
O754       Co774   1.998       .  S
O755        C763   1.249       .  A
O755       Co775   1.987       .  S
O756        C764   1.267       .  A
O756       Co776   1.992       .  S
O757        C763   1.249       .  A
O758       Co773   2.004       .  S
O759        C762   1.267       .  A
O759       Co776   1.992       .  S
O760        C761   1.251       .  A
O760       Co775   1.994       .  S
C761        C914   1.434       .  S
C762        C814   1.438       .  S
C763        C887   1.441       .  S
C764        C838   1.442       .  S
O765        C778   1.256       .  A
O766       Co774   1.897       .  S
O767        C780   1.290       .  A
O767       Co775   2.050   1_554  S
O768        C781   1.265       .  A
O768       Co776   2.017       .  S
O769        C781   1.254       .  A
O769       Co774   1.986       .  S
O770        C780   1.270       .  A
O770       Co773   1.903       .  S
O771        C778   1.267       .  A
O771       Co776   2.029       .  S
O772        C779   1.295       .  A
O772       Co775   2.073   1_554  S
Co774       O777   1.921       .  S
Co776       O777   2.110       .  S
C778        C910   1.449       .  S
C779        C815   1.430       .  S
C780        C826   1.424       .  S
C781        C886   1.435       .  S
O782        C790   1.269       .  A
O782       Co802   1.900       .  S
O783        C791   1.254       .  A
O783       Co803   1.988       .  S
O784        C792   1.296       .  A
O784       Co804   2.077   1_554  S
O785        C793   1.263       .  A
O785       Co805   2.014       .  S
O786       Co803   1.895       .  S
O787        C793   1.253       .  A
O788        C791   1.266       .  A
O788       Co805   2.026       .  S
O789        C790   1.295       .  A
O789       Co804   2.072   1_554  S
C790        C842   1.433       .  S
C791        C862   1.441       .  S
C792        C858   1.431       .  S
C793        C950   1.433       .  S
O794       Co802   2.006       .  S
O795        C808   1.246       .  A
O796        C809   1.251       .  A
O796       Co804   1.997       .  S
O797        C810   1.264       .  A
O797       Co805   1.987       .  S
O798        C810   1.266       .  A
O798       Co803   2.002       .  S
O799        C809   1.246       .  A
O799       Co802   1.975   1_556  S
O800        C807   1.266       .  A
O800       Co805   1.986       .  S
O801        C808   1.251       .  A
O801       Co804   1.989       .  S
Co803       O806   1.917       .  S
Co805       O806   2.112       .  S
C807        C822   1.439       .  S
C808        C866   1.432       .  S
C809        C954   1.440       .  S
C810        C811   1.439       .  S
C811        C812   1.208       .  T
C812        C813   1.416       .  S
C813        C814   1.208       .  T
C815        C816   1.203       .  T
C816        C817   1.407       .  S
C817        C818   1.203       .  T
C819        C820   1.208       .  T
C820        C821   1.416   1_565  S
C821        C822   1.208       .  T
C823        C824   1.200       .  T
C824        C825   1.403       .  S
C825        C826   1.200   1_556  T
C827        C828   1.206       .  T
C828        C829   1.412       .  S
C829        C830   1.205       .  T
C831        C832   1.209       .  T
C832        C833   1.417   1_545  S
C833        C834   1.209       .  T
C835        C836   1.209       .  T
C836        C837   1.418   1_655  S
C837        C838   1.210       .  T
C839        C840   1.205       .  T
C840        C841   1.411       .  S
C841        C842   1.205       .  T
C843        C844   1.209       .  T
C844        C845   1.417   1_455  S
C845        C846   1.209       .  T
C847        C848   1.208       .  T
C848        C849   1.416       .  S
C849        C850   1.208       .  T
C851        C852   1.200   1_554  T
C852        C853   1.403       .  S
C853        C854   1.200       .  T
C855        C856   1.203       .  T
C856        C857   1.408       .  S
C857        C858   1.203       .  T
C859        C860   1.210       .  T
C860        C861   1.419       .  S
C861        C862   1.209       .  T
C863        C864   1.205       .  T
C864        C865   1.410       .  S
C865        C866   1.204       .  T
C867        C868   1.206       .  T
C868        C869   1.412       .  S
C869        C870   1.206       .  T
C871        C872   1.210       .  T
C872        C873   1.419       .  S
C873        C874   1.210       .  T
C875        C876   1.210       .  T
C876        C877   1.419       .  S
C877        C878   1.210       .  T
C879        C880   1.205       .  T
C880        C881   1.411       .  S
C881        C882   1.205       .  T
C883        C884   1.206       .  T
C884        C885   1.413       .  S
C885        C886   1.206       .  T
C887        C888   1.210       .  T
C888        C889   1.419       .  S
C889        C890   1.210       .  T
C891        C892   1.214       .  T
C892        C893   1.426       .  S
C893        C894   1.214       .  T
C895        C896   1.205       .  T
C896        C897   1.411       .  S
C897        C898   1.205       .  T
C899        C900   1.203       .  T
C900        C901   1.409       .  S
C901        C902   1.204       .  T
C903        C904   1.210       .  T
C904        C905   1.419       .  S
C905        C906   1.210       .  T
C907        C908   1.214       .  T
C908        C909   1.426       .  S
C909        C910   1.214       .  T
C911        C912   1.205       .  T
C912        C913   1.412       .  S
C913        C914   1.205       .  T
C915        C916   1.202       .  T
C916        C917   1.407       .  S
C917        C918   1.202       .  T
C919        C920   1.210       .  T
C920        C921   1.419       .  S
C921        C922   1.210       .  T
C923        C924   1.205       .  T
C924        C925   1.411       .  S
C925        C926   1.205       .  T
C927        C928   1.200       .  T
C928        C929   1.403       .  S
C929        C930   1.200       .  T
C931        C932   1.205       .  T
C932        C933   1.411       .  S
C933        C934   1.205       .  T
C935        C936   1.208       .  T
C936        C937   1.417       .  S
C937        C938   1.208       .  T
C939        C940   1.205       .  T
C940        C941   1.412       .  S
C941        C942   1.205       .  T
C943        C944   1.199       .  T
C944        C945   1.402       .  S
C945        C946   1.199       .  T
C947        C948   1.205       .  T
C948        C949   1.411       .  S
C949        C950   1.205       .  T
C951        C952   1.209       .  T
C952        C953   1.417       .  S
C953        C954   1.209       .  T
