geometry optimzed in LAMMPS
_audit_creation_date              2020-11-30 
_audit_creation_method            'lammps2cif' 
_symmetry_space_group_name_H-M    'P1' 
_symmetry_Int_Tables_number       1 
_symmetry_cell_setting            triclinic 
loop_ 
_symmetry_equiv_pos_as_xyz 
  x,y,z 
_cell_length_a                    36.93899689135237 
_cell_length_b                    32.273392297467545 
_cell_length_c                    28.921422936779436 
_cell_angle_alpha                 86.87929554710566 
_cell_angle_beta                  91.84495173233854 
_cell_angle_gamma                 124.81112044465591 
loop_ 
_atom_site_label 
_atom_site_type_symbol 
_atom_site_fract_x 
_atom_site_fract_y 
_atom_site_fract_z 
_atom_site_charge 
C1          C  0.34115790  0.18244473  0.02454850    -0.01460
C2          C  0.34081935  0.19123403  0.23528353    -0.01460
C3          C  0.16739647  0.33777449  0.43183433    -0.01460
C4          C  0.16450164  0.33503320  0.21941121    -0.01460
C5          C  0.41478466  0.06406650  0.48337912     0.77470
Tb6        Tb  0.05300453  0.00757081  0.47833261     1.80740
O7          O  0.42522891  0.05871634  0.44402014    -0.50540
O8          O  0.38138737  0.46012144  0.43214690    -0.57990
C9          C  0.05242840  0.11382837  0.46723038     0.93290
O10         O  0.12668848  0.05798038  0.95231864    -0.57520
Tb11       Tb  0.44917172  0.00714238  0.47132375     1.78060
O12         O  0.06926949  0.44922166  0.50560779    -0.58020
O13         O  0.43055152  0.42465442  0.46768015    -0.76820
O14         O  0.01125770  0.09061223  0.45984732    -0.76140
O15         O  0.47279394  0.00988476  0.04994095    -0.61410
C16         C  0.44811199  0.40100929  0.47693615     0.92880
O17         O  0.03221240  0.01058100  0.39912491    -0.73360
C18         C  0.08192919  0.94475732  0.46726298     0.76320
C19         C  0.35773519  0.44124351  0.46812965     0.77300
O20         O  0.42309145  0.04247628  0.01522793    -0.58610
O21         O  0.37961675  0.45342950  0.00526059    -0.50550
O22         O  0.03163377  0.00663698  0.05516657    -0.76620
O23         O  0.47149227  0.01049675  0.39451542    -0.60610
C24         C  0.50240291  0.01090634  0.37537598     0.91100
C25         C  0.50215398  0.00917021  0.07396398     0.92330
C26         C  0.14517834  0.06953608  0.99142893     0.76670
O27         O  0.07783220  0.96972734  0.43499761    -0.49940
O28         O  0.11775788  0.55189515  0.02425860    -0.51090
O29         O  0.48905154  0.42382194  0.48606306    -0.63940
O30         O  0.07038719  0.09037730  0.47625678    -0.65080
C31         C  0.42809573  0.08411833  0.23941341     0.77470
Tb32       Tb  0.05801624  0.01273341  0.22648096     1.80740
O33         O  0.43105345  0.07123955  0.20010401    -0.50540
O34         O  0.38804345  0.46157737  0.17278949    -0.57990
C35         C  0.05760380  0.11348416  0.19917076     0.93290
O36         O  0.13466354  0.05842769  0.21517526    -0.57520
Tb37       Tb  0.45010432  0.01417444  0.22253332     1.78060
O38         O  0.09248853  0.47017479  0.23883677    -0.58020
O39         O  0.43587963  0.43504590  0.24420451    -0.76820
O40         O  0.01773813  0.09199563  0.21142076    -0.76140
O41         O  0.47251658  0.01107039  0.30030140    -0.61410
C42         C  0.45420200  0.41262207  0.25621059     0.92880
O43         O  0.03258601  0.01155757  0.14927781    -0.73360
C44         C  0.08005997  0.94462885  0.20326297     0.76320
C45         C  0.35853279  0.44679233  0.20287217     0.77300
O46         O  0.43805171  0.06377516  0.27105107    -0.58610
O47         O  0.37494243  0.46448013  0.24170635    -0.50550
O48         O  0.03407558  0.01235468  0.30279671    -0.76620
O49         O  0.47248682  0.01318472  0.14583343    -0.60610
C50         C  0.50225128  0.01137121  0.12627026     0.91100
C51         C  0.50321810  0.01160330  0.32290887     0.92330
C52         C  0.14837012  0.08085320  0.25265973     0.76670
O53         O  0.05417164  0.95059353  0.17914480    -0.49940
O54         O  0.11687450  0.57189289  0.27739556    -0.51090
O55         O  0.49598535  0.43532451  0.25602567    -0.63940
O56         O  0.07446512  0.08947192  0.19178864    -0.65080
C57         C  0.13300929  0.27658601  0.20912079    -0.04310
C58         C  0.13265127  0.25603767  0.16616150    -0.01430
C59         C  0.10709764  0.20258389  0.16135428     0.03560
C60         C  0.08621732  0.16964502  0.20053157    -0.04310
C61         C  0.08707805  0.19051349  0.24215150    -0.01420
C62         C  0.10082405  0.24075273  0.24173383     0.03550
C63         C  0.15976303  0.28943009  0.12802591     0.38200
C64         C  0.06696092  0.15826651  0.28354734     0.38190
C65         C  0.06581462  0.24554600  0.25419685     0.36620
C66         C  0.10047491  0.18173948  0.11641262     0.36620
N67         N  0.03648293  0.24745204  0.26309138    -0.38200
N68         N  0.09387323  0.16472972  0.08041111    -0.38200
N69         N  0.05071781  0.13119230  0.31574320    -0.37650
N70         N  0.18399840  0.31762629  0.09964811    -0.37650
C71         C  0.14275606  0.36440138  0.19960818    -0.04310
C72         C  0.16403321  0.41708457  0.20784313    -0.01430
C73         C  0.14476496  0.44262440  0.19359757     0.03560
C74         C  0.09968752  0.41671745  0.19068051    -0.04310
C75         C  0.07668575  0.36616489  0.17928276    -0.01420
C76         C  0.09889828  0.34119722  0.17901989     0.03550
C77         C  0.19903833  0.44286219  0.24097740     0.38200
C78         C  0.03245529  0.34324945  0.16204465     0.38190
C79         C  0.07486161  0.29309089  0.15734102     0.36620
C80         C  0.16938236  0.49227681  0.17117847     0.36620
N81         N  0.05339259  0.25486692  0.13955715    -0.38200
N82         N  0.18500209  0.03016485  0.15000303    -0.38200
N83         N  0.99793207  0.32739697  0.14654702    -0.37650
N84         N  0.22612747  0.46311287  0.26873587    -0.37650
C85         C  0.21405212  0.36013620  0.19929557    -0.04310
C86         C  0.24265738  0.41304151  0.19298668    -0.01430
C87         C  0.28684890  0.43734553  0.20619496     0.03560
C88         C  0.30954881  0.41697568  0.19402352    -0.04310
C89         C  0.28332628  0.36604519  0.18190582    -0.01420
C90         C  0.23669834  0.33580732  0.19211198     0.03550
C91         C  0.23597215  0.43458485  0.15149433     0.38200
C92         C  0.30468201  0.34546812  0.16167389     0.38190
C93         C  0.21582560  0.28222693  0.20098845     0.36620
C94         C  0.30287682  0.46841303  0.24560882     0.36620
N95         N  0.19908256  0.23945156  0.20883740    -0.38200
N96         N  0.31813802  0.99058831  0.27883389    -0.38200
N97         N  0.32321672  0.33156182  0.14378515    -0.37650
N98         N  0.23026731  0.45164635  0.11826069    -0.37630
C99         C  0.08082807  0.17105846  0.46530105    -0.04310
C100        C  0.06255554  0.19932182  0.46639538    -0.01430
C101        C  0.08799340  0.25148762  0.45288700     0.03560
C102        C  0.13551943  0.28013423  0.45197166    -0.04310
C103        C  0.15158869  0.25166547  0.47127056    -0.01420
C104        C  0.12713361  0.19949037  0.46537504     0.03550
C105        C  0.02167996  0.17869270  0.48984139     0.38200
C106        C  0.18751749  0.27099658  0.50432446     0.38190
C107        C  0.15109522  0.17857725  0.45388139     0.36620
C108        C  0.06358143  0.27285009  0.43854496     0.36620
N109        N  0.17205574  0.16515201  0.44145506    -0.38200
N110        N  0.04372828  0.28906004  0.92627496    -0.38200
N111        N  0.21634726  0.28491829  0.53032813    -0.37650
N112        N  0.49126428  0.16524662  0.01209782    -0.37650
C113        C  0.14807158  0.36915171  0.44524421    -0.04310
C114        C  0.12667739  0.36264292  0.48855962    -0.01430
C115        C  0.10876209  0.39052015  0.49700627     0.03560
C116        C  0.10177053  0.41568538  0.46025375    -0.04310
C117        C  0.11775231  0.41677160  0.41647959    -0.01420
C118        C  0.14774758  0.40365697  0.41250115     0.03550
C119        C  0.12037973  0.32631748  0.02443423     0.38200
C120        C  0.10604389  0.43492578  0.37584037     0.38190
C121        C  0.18602600  0.43924370  0.38503936     0.36620
C122        C  0.09935262  0.39483241  0.04384156     0.36620
N123        N  0.21656481  0.47175182  0.36495895    -0.38200
N124        N  0.09309927  0.40068469  0.08098818    -0.38200
N125        N  0.09469465  0.44971719  0.34540141    -0.37650
N126        N  0.11013335  0.29417833  0.05190072    -0.37650
C127        C  0.21643537  0.36092180  0.44984239    -0.04310
C128        C  0.24076257  0.34221079  0.43227443    -0.01430
C129        C  0.28660876  0.36812117  0.43867026     0.03560
C130        C  0.30903701  0.40952650  0.46685727    -0.04310
C131        C  0.28518405  0.42269403  0.99155859    -0.01420
C132        C  0.24020218  0.40128706  0.48136761     0.03550
C133        C  0.22003108  0.29876326  0.40354759     0.38200
C134        C  0.30736383  0.45969694  0.02706132     0.38190
C135        C  0.22143988  0.42398154  0.00342623     0.36620
C136        C  0.31115137  0.35297949  0.41490391     0.36620
N137        N  0.20932971  0.44493451  0.02180100    -0.38200
N138        N  0.33086281  0.34129621  0.39582513    -0.38200
N139        N  0.32414435  0.98818011  0.05616130    -0.37650
N140        N  0.20338054  0.26430446  0.38051493    -0.37650
C141        C  0.16925394  0.33955828  0.37608871    -0.04310
C142        C  0.20872198  0.36894130  0.34787092    -0.01430
C143        C  0.20675787  0.35581375  0.30163415     0.03560
C144        C  0.16831188  0.34009452  0.27458260    -0.04310
C145        C  0.13292257  0.33015794  0.30247520    -0.01420
C146        C  0.13049169  0.31416045  0.34878780     0.03550
C147        C  0.25092757  0.41247536  0.36246831     0.38200
C148        C  0.10779446  0.35031113  0.29139165     0.38190
C149        C  0.09870391  0.26098515  0.35574300     0.36620
C150        C  0.23495628  0.33997289  0.29286146     0.36620
N151        N  0.07280628  0.21794840  0.36030922    -0.38200
N152        N  0.25620949  0.32442260  0.29010356    -0.38200
N153        N  0.08819862  0.36770492  0.28411676    -0.37650
N154        N  0.28462082  0.44776116  0.37337342    -0.37650
C155        C  0.28984412  0.15633264  0.25560134    -0.04310
C156        C  0.25660455  0.10365819  0.24433952    -0.01430
C157        C  0.21309807  0.07886738  0.25921064     0.03560
C158        C  0.19584934  0.10585472  0.26679846    -0.04310
C159        C  0.22534110  0.15335326  0.28511339    -0.01420
C160        C  0.27168615  0.17372954  0.28688841     0.03550
C161        C  0.26072036  0.07298070  0.21308554     0.38200
C162        C  0.20798527  0.17951763  0.30258771     0.38190
C163        C  0.29822080  0.20908407  0.32216846     0.36620
C164        C  0.18751130  0.52674971  0.27497861     0.36620
N165        N  0.31935754  0.23803851  0.34999814    -0.38200
N166        N  0.16590467  0.48610132  0.29069098    -0.38200
N167        N  0.19232737  0.19917745  0.31539687    -0.37650
N168        N  0.26355000  0.04701679  0.18962355    -0.37650
C169        C  0.36987842  0.24821795  0.25094082    -0.04310
C170        C  0.35259124  0.27833902  0.25032317    -0.01430
C171        C  0.37870297  0.32927877  0.26315435     0.03560
C172        C  0.42481366  0.35594989  0.26636754    -0.04310
C173        C  0.44241372  0.32736627  0.26729058    -0.01420
C174        C  0.41727992  0.27725430  0.25314265     0.03550
C175        C  0.31118474  0.26091432  0.22756441     0.38200
C176        C  0.48481216  0.34746474  0.28803588     0.38190
C177        C  0.44198809  0.26165165  0.23065595     0.36620
C178        C  0.35816292  0.35337980  0.27717863     0.36620
N179        N  0.46105650  0.24793513  0.21352996    -0.38200
N180        N  0.34440594  0.37460859  0.29116455    -0.38200
N181        N  0.01744783  0.36351804  0.30786713    -0.37650
N182        N  0.27799266  0.24548433  0.20887365    -0.37650
C183        C  0.36339837  0.16195355  0.25225625    -0.04310
C184        C  0.39842341  0.17386305  0.28531654    -0.01430
C185        C  0.42076200  0.14863309  0.28247558     0.03560
C186        C  0.40865216  0.11372268  0.24671645    -0.04310
C187        C  0.37091151  0.10118382  0.22110786    -0.01420
C188        C  0.34369385  0.11261318  0.24009830     0.03550
C189        C  0.40855381  0.20608000  0.32350696     0.38200
C190        C  0.35478102  0.06902434  0.18213050     0.38190
C191        C  0.31799936  0.07877580  0.27950842     0.36620
C192        C  0.45331557  0.15656424  0.31652112     0.36620
N193        N  0.29766486  0.05501546  0.31190166    -0.38200
N194        N  0.97844020  0.16202789  0.34469914    -0.38200
N195        N  0.34140641  0.54345584  0.15070757    -0.37650
N196        N  0.41802733  0.23265601  0.35369717    -0.37650
C197        C  0.19413446  0.09953195  0.99801416    -0.04310
C198        C  0.21966293  0.08882951  0.47333386    -0.01430
C199        C  0.26285834  0.10686936  0.48793678     0.03560
C200        C  0.28855027  0.15197000  0.01395438    -0.04310
C201        C  0.26217558  0.16662087  0.03472025    -0.01420
C202        C  0.21560336  0.13774830  0.02992981     0.03550
C203        C  0.20177351  0.05870554  0.43282810     0.38200
C204        C  0.28145175  0.21146940  0.06155520     0.38190
C205        C  0.19013807  0.15006082  0.05574846     0.36620
C206        C  0.27369425  0.07072508  0.48358920     0.36620
N207        N  0.17043705  0.16027291  0.07687746    -0.38200
N208        N  0.28029101  0.04013049  0.47935746    -0.38200
N209        N  0.29535235  0.24665360  0.08324586    -0.37650
N210        N  0.18841383  0.03701356  0.39908874    -0.37650
C211        C  0.36700225  0.23567355  0.49498374    -0.04310
C212        C  0.41211149  0.26343255  0.47857432    -0.01430
C213        C  0.43507010  0.31561454  0.46449260     0.03560
C214        C  0.41908520  0.34396673  0.47749428    -0.04310
C215        C  0.37443535  0.31601051  0.49084582    -0.01420
C216        C  0.34802921  0.26333656  0.48818277     0.03550
C217        C  0.43878859  0.24372598  0.48142239     0.38200
C218        C  0.35545528  0.33836774  0.51292351     0.38190
C219        C  0.30772815  0.24285380  0.46178286     0.36620
C220        C  0.47504997  0.33962272  0.43751142     0.36620
N221        N  0.27562720  0.22706184  0.44055611    -0.38200
N222        N  0.00590448  0.35741432  0.41441238    -0.38200
N223        N  0.33881717  0.35315912  0.53315599    -0.37650
N224        N  0.46159618  0.22988473  0.48354618    -0.37650
C225        C  0.39589598  0.09350701  0.49288583    -0.04310
C226        C  0.37914934  0.10985551  0.45736155    -0.01430
C227        C  0.36354960  0.13977966  0.46723113     0.03560
C228        C  0.36228906  0.15247529  0.51375736    -0.04310
C229        C  0.38500186  0.14064840  0.04788100    -0.01420
C230        C  0.39744970  0.10814267  0.03837244     0.03550
C231        C  0.37456053  0.09242576  0.41105046     0.38200
C232        C  0.40387359  0.16698704  0.09056863     0.38190
C233        C  0.41647874  0.09406004  0.07571717     0.36620
C234        C  0.34653245  0.15510601  0.42916830     0.36620
N235        N  0.43251709  0.08339910  0.10461761    -0.38200
N236        N  0.33135363  0.16536778  0.39898088    -0.38200
N237        N  0.42050030  0.18621712  0.12489517    -0.37650
N238        N  0.37047259  0.07712551  0.37464437    -0.37650
C239        C  0.34440161  0.18980250  0.07874633    -0.04310
C240        C  0.37491303  0.23584809  0.10091866    -0.01430
C241        C  0.37150622  0.24046584  0.14909497     0.03560
C242        C  0.34039091  0.19709025  0.17890444    -0.04310
C243        C  0.30571181  0.15858752  0.15290217    -0.01420
C244        C  0.31389652  0.14889641  0.10929466     0.03550
C245        C  0.41508263  0.27684889  0.07852083     0.38200
C246        C  0.26345492  0.15173426  0.15562521     0.38190
C247        C  0.28700324  0.09713579  0.09562600     0.36620
C248        C  0.39339986  0.29273063  0.16086079     0.36620
N249        N  0.26529422  0.05535486  0.08568906    -0.38200
N250        N  0.41152953  0.33573056  0.16498374    -0.38200
N251        N  0.22975975  0.14641751  0.15730948    -0.37650
N252        N  0.44870511  0.31125999  0.06495556    -0.37650
C253        C  0.34115208  0.18245033  0.52455014    -0.01460
C254        C  0.34081797  0.19123281  0.73528718    -0.01460
C255        C  0.16740248  0.33776659  0.93183178    -0.01460
C256        C  0.16450223  0.33502628  0.71940833    -0.01460
C257        C  0.41478911  0.06405951  0.98337728     0.77470
Tb258      Tb  0.05301031  0.00756350  0.97833387     1.80740
O259        O  0.42523611  0.05871174  0.94401880    -0.50540
O260        O  0.38139331  0.46011420  0.93214590    -0.57990
C261        C  0.05243517  0.11382154  0.96723103     0.93290
O262        O  0.12668307  0.05798754  0.45231857    -0.57520
Tb263      Tb  0.44917730  0.00713620  0.97132327     1.78060
O264        O  0.06927875  0.44921694  0.00560942    -0.58020
O265        O  0.43055950  0.42464916  0.96767732    -0.76820
O266        O  0.01126431  0.09060560  0.95984908    -0.76140
O267        O  0.47278864  0.00988822  0.54994170    -0.61410
C268        C  0.44811902  0.40100357  0.97693746     0.92880
O269        O  0.03221705  0.01057318  0.89912548    -0.73360
C270        C  0.08193477  0.94474916  0.96726373     0.76320
C271        C  0.35774100  0.44123593  0.96812854     0.77300
O272        O  0.42308976  0.04248579  0.51522973    -0.58610
O273        O  0.37961115  0.45343688  0.50526155    -0.50550
O274        O  0.03162786  0.00663913  0.55516544    -0.76620
O275        O  0.47149926  0.01049364  0.89451577    -0.60610
C276        C  0.50240880  0.01090119  0.87537643     0.91100
C277        C  0.50214829  0.00917172  0.57396387     0.92330
C278        C  0.14517255  0.06954390  0.49142901     0.76670
O279        O  0.07783410  0.96971605  0.93499807    -0.49940
O280        O  0.11775158  0.55190343  0.52425820    -0.51090
O281        O  0.48905757  0.42381547  0.98606893    -0.63940
O282        O  0.07039404  0.09037040  0.97625641    -0.65080
C283        C  0.42809650  0.08411817  0.73941701     0.77470
Tb284      Tb  0.05801460  0.01272669  0.72647714     1.80740
O285        O  0.43105233  0.07123729  0.70010795    -0.50540
O286        O  0.38804467  0.46156620  0.67279631    -0.57990
C287        C  0.05760457  0.11347866  0.69916458     0.93290
O288        O  0.13466160  0.05841372  0.71517565    -0.57520
Tb289      Tb  0.45010496  0.01417364  0.72253730     1.78060
O290        O  0.09248390  0.47016457  0.73883558    -0.58020
O291        O  0.43587645  0.43504497  0.74421590    -0.76820
O292        O  0.01773971  0.09199183  0.71141691    -0.76140
O293        O  0.47252327  0.01107105  0.80030313    -0.61410
C294        C  0.45419872  0.41261948  0.75621494     0.92880
O295        O  0.03258095  0.01155382  0.64927595    -0.73360
C296        C  0.08005797  0.94462094  0.70326035     0.76320
C297        C  0.35853371  0.44678922  0.70287669     0.77300
O298        O  0.43805454  0.06377696  0.77105457    -0.58610
O299        O  0.37494310  0.46448546  0.74170860    -0.50550
O300        O  0.03407774  0.01234614  0.80279550    -0.76620
O301        O  0.47248330  0.01318425  0.64583557    -0.60610
C302        C  0.50224637  0.01136994  0.62627033     0.91100
C303        C  0.50322317  0.01159899  0.82290919     0.92330
C304        C  0.14836791  0.08084611  0.75265674     0.76670
O305        O  0.05417301  0.95058922  0.67913957    -0.49940
O306        O  0.11687245  0.57189372  0.77738789    -0.51090
O307        O  0.49598158  0.43531924  0.75601956    -0.63940
O308        O  0.07446483  0.08946512  0.69178289    -0.65080
C309        C  0.13301070  0.27657945  0.70911746    -0.04310
C310        C  0.13264966  0.25603248  0.66615617    -0.01430
C311        C  0.10709550  0.20257885  0.66134759     0.03560
C312        C  0.08621932  0.16963930  0.70052550    -0.04310
C313        C  0.08708441  0.19050689  0.74214771    -0.01420
C314        C  0.10082855  0.24074528  0.74173216     0.03550
C315        C  0.15975955  0.28942639  0.62802041     0.38200
C316        C  0.06697105  0.15825886  0.78354371     0.38190
C317        C  0.06581779  0.24553555  0.75419676     0.36620
C318        C  0.10046797  0.18173549  0.61640464     0.36620
N319        N  0.03648530  0.24743992  0.76309170    -0.38200
N320        N  0.09386250  0.16472647  0.58040229    -0.38200
N321        N  0.05073056  0.13118337  0.81573928    -0.37650
N322        N  0.18399395  0.31762453  0.59964298    -0.37650
C323        C  0.14275519  0.36439369  0.69960704    -0.04310
C324        C  0.16403164  0.41707660  0.70784287    -0.01430
C325        C  0.14476333  0.44261643  0.69359750     0.03560
C326        C  0.09968590  0.41670943  0.69067918    -0.04310
C327        C  0.07668463  0.36615710  0.67928053    -0.01420
C328        C  0.09889712  0.34118926  0.67901894     0.03550
C329        C  0.19903664  0.44285441  0.74097721     0.38200
C330        C  0.03245473  0.34324156  0.66204011     0.38190
C331        C  0.07485878  0.29308126  0.65734296     0.36620
C332        C  0.16938136  0.49227017  0.67118094     0.36620
N333        N  0.05338787  0.25485597  0.63956151    -0.38200
N334        N  0.18500128  0.03015937  0.65000733    -0.38200
N335        N  0.99793206  0.32738743  0.64653996    -0.37650
N336        N  0.22612599  0.46310598  0.76873529    -0.37650
C337        C  0.21405263  0.36013061  0.69929158    -0.04310
C338        C  0.24265774  0.41303626  0.69298740    -0.01430
C339        C  0.28684836  0.43733932  0.70619831     0.03560
C340        C  0.30954970  0.41697112  0.69402722    -0.04310
C341        C  0.28332865  0.36604255  0.68190367    -0.01420
C342        C  0.23669966  0.33580313  0.69210502     0.03550
C343        C  0.23597502  0.43458398  0.65149654     0.38200
C344        C  0.30468704  0.34546808  0.66167283     0.38190
C345        C  0.21582616  0.28222150  0.70097291     0.36620
C346        C  0.30287610  0.46841053  0.74560944     0.36620
N347        N  0.19908239  0.23944486  0.70881451    -0.38200
N348        N  0.31813747  0.99058931  0.77883268    -0.38200
N349        N  0.32322429  0.33156386  0.64378606    -0.37650
N350        N  0.23027294  0.45164970  0.61826412    -0.37630
C351        C  0.08083477  0.17105156  0.96530151    -0.04310
C352        C  0.06256175  0.19931460  0.96639257    -0.01430
C353        C  0.08799959  0.25147985  0.95288262     0.03560
C354        C  0.13552564  0.28012668  0.95196926    -0.04310
C355        C  0.15159486  0.25165915  0.97127147    -0.01420
C356        C  0.12714037  0.19948380  0.96537760     0.03550
C357        C  0.02168548  0.17868609  0.98983685     0.38200
C358        C  0.18752274  0.27099224  0.00432672     0.38190
C359        C  0.15110267  0.17857125  0.95388511     0.36620
C360        C  0.06358785  0.27284194  0.93853793     0.36620
N361        N  0.17206362  0.16514646  0.94145911    -0.38200
N362        N  0.04372157  0.28906843  0.42628403    -0.38200
N363        N  0.21635155  0.28491595  0.03033204    -0.37650
N364        N  0.49125952  0.16525282  0.51210411    -0.37650
C365        C  0.14807698  0.36914307  0.94524232    -0.04310
C366        C  0.12668214  0.36263301  0.98855771    -0.01430
C367        C  0.10876686  0.39051016  0.99700525     0.03560
C368        C  0.10177621  0.41567712  0.96025364    -0.04310
C369        C  0.11775848  0.41676437  0.91647938    -0.01420
C370        C  0.14775323  0.40364893  0.91250003     0.03550
C371        C  0.12037543  0.32632852  0.52443703     0.38200
C372        C  0.10604969  0.43491874  0.87584079     0.38190
C373        C  0.18603118  0.43923415  0.88503709     0.36620
C374        C  0.09934944  0.39484503  0.54384250     0.36620
N375        N  0.21657028  0.47174106  0.86495622    -0.38200
N376        N  0.09309739  0.40069982  0.58098875    -0.38200
N377        N  0.09469946  0.44971009  0.84540281    -0.37650
N378        N  0.11012911  0.29419066  0.55190494    -0.37650
C379        C  0.21644149  0.36091436  0.94983968    -0.04310
C380        C  0.24076858  0.34220267  0.93227308    -0.01430
C381        C  0.28661480  0.36811317  0.93866919     0.03560
C382        C  0.30904285  0.40951873  0.96685592    -0.04310
C383        C  0.28517836  0.42270156  0.49156062    -0.01420
C384        C  0.24020809  0.40127984  0.98136468     0.03550
C385        C  0.22003709  0.29875396  0.90354786     0.38200
C386        C  0.30735863  0.45970486  0.52706293     0.38190
C387        C  0.22143422  0.42398868  0.50342994     0.36620
C388        C  0.31115773  0.35297160  0.91490334     0.36620
N389        N  0.20932467  0.44494186  0.52180552    -0.38200
N390        N  0.33086968  0.34128877  0.89582492    -0.38200
N391        N  0.32413942  0.98818840  0.55616255    -0.37650
N392        N  0.20338719  0.26429373  0.88051706    -0.37650
C393        C  0.16925917  0.33954938  0.87608610    -0.04310
C394        C  0.20872645  0.36892977  0.84786695    -0.01430
C395        C  0.20675983  0.35580172  0.80162975     0.03560
C396        C  0.16831378  0.34008655  0.77457985    -0.04310
C397        C  0.13292572  0.33015041  0.80247456    -0.01420
C398        C  0.13049607  0.31415163  0.84878669     0.03550
C399        C  0.25093301  0.41246314  0.86246270     0.38200
C400        C  0.10779408  0.35029922  0.79139152     0.38190
C401        C  0.09871335  0.26097473  0.85573964     0.36620
C402        C  0.23495125  0.33995118  0.79285645     0.36620
N403        N  0.07281984  0.21793705  0.86030606    -0.38200
N404        N  0.25619832  0.32439303  0.79009716    -0.38200
N405        N  0.08819498  0.36768899  0.78411651    -0.37650
N406        N  0.28462701  0.44774835  0.87336701    -0.37650
C407        C  0.28984241  0.15632979  0.75560387    -0.04310
C408        C  0.25660410  0.10365535  0.74434115    -0.01430
C409        C  0.21309734  0.07886311  0.75921169     0.03560
C410        C  0.19584687  0.10584918  0.76679743    -0.04310
C411        C  0.22533729  0.15334871  0.78511123    -0.01420
C412        C  0.27168240  0.17372558  0.78688924     0.03550
C413        C  0.26072124  0.07297956  0.71308621     0.38200
C414        C  0.20798038  0.17951494  0.80257843     0.38190
C415        C  0.29821485  0.20907784  0.82217145     0.36620
C416        C  0.18751132  0.52674517  0.77497849     0.36620
N417        N  0.31935074  0.23803028  0.85000279    -0.38200
N418        N  0.16590539  0.48609620  0.79068958    -0.38200
N419        N  0.19232106  0.19917600  0.81538041    -0.37650
N420        N  0.26355147  0.04701653  0.68962359    -0.37650
C421        C  0.36987630  0.24821619  0.75094630    -0.04310
C422        C  0.35258869  0.27833680  0.75033004    -0.01430
C423        C  0.37869974  0.32927624  0.76316234     0.03560
C424        C  0.42481057  0.35594783  0.76637489    -0.04310
C425        C  0.44241113  0.32736465  0.76729688    -0.01420
C426        C  0.41727785  0.27725318  0.75314773     0.03550
C427        C  0.31118344  0.26091318  0.72756924     0.38200
C428        C  0.48481294  0.34746646  0.78803504     0.38190
C429        C  0.44198654  0.26165191  0.73065965     0.36620
C430        C  0.35815878  0.35337773  0.77718306     0.36620
N431        N  0.46105576  0.24793650  0.71353356    -0.38200
N432        N  0.34439995  0.37460637  0.79116486    -0.38200
N433        N  0.01745269  0.36352436  0.80785923    -0.37650
N434        N  0.27799265  0.24548433  0.70887622    -0.37650
C435        C  0.36339804  0.16195298  0.75225951    -0.04310
C436        C  0.39842361  0.17386292  0.78531953    -0.01430
C437        C  0.42076293  0.14863376  0.78247828     0.03560
C438        C  0.40865256  0.11372235  0.74671999    -0.04310
C439        C  0.37091151  0.10118292  0.72111182    -0.01420
C440        C  0.34369387  0.11261256  0.74010203     0.03550
C441        C  0.40855472  0.20608031  0.82350979     0.38200
C442        C  0.35478051  0.06902260  0.68213510     0.38190
C443        C  0.31799904  0.07877529  0.77951203     0.36620
C444        C  0.45331971  0.15656899  0.81652144     0.36620
N445        N  0.29766428  0.05501462  0.81190503    -0.38200
N446        N  0.97844770  0.16203684  0.84469692    -0.38200
N447        N  0.34140503  0.54345305  0.65071283    -0.37650
N448        N  0.41802916  0.23265700  0.85369966    -0.37650
C449        C  0.19412872  0.09953932  0.49801481    -0.04310
C450        C  0.21966864  0.08882174  0.97333382    -0.01430
C451        C  0.26286423  0.10686260  0.98793649     0.03560
C452        C  0.28854438  0.15197565  0.51395615    -0.04310
C453        C  0.26216986  0.16662637  0.53472252    -0.01420
C454        C  0.21559765  0.13775443  0.52993169     0.03550
C455        C  0.20177911  0.05869642  0.93282894     0.38200
C456        C  0.28144630  0.21147440  0.56155802     0.38190
C457        C  0.19013254  0.15006616  0.55575172     0.36620
C458        C  0.27370041  0.07071830  0.98359070     0.36620
N459        N  0.17043188  0.16027763  0.57688218    -0.38200
N460        N  0.28029775  0.04012396  0.97936056    -0.38200
N461        N  0.29534717  0.24665836  0.58324905    -0.37650
N462        N  0.18841974  0.03700346  0.89909008    -0.37650
C463        C  0.36700825  0.23566798  0.99498211    -0.04310
C464        C  0.41211725  0.26342658  0.97857186    -0.01430
C465        C  0.43507649  0.31560907  0.96449178     0.03560
C466        C  0.41909219  0.34396130  0.97749510    -0.04310
C467        C  0.37444259  0.31600556  0.99084688    -0.01420
C468        C  0.34803591  0.26333183  0.98818267     0.03550
C469        C  0.43879360  0.24371897  0.98141692     0.38200
C470        C  0.35546330  0.33836320  0.01292541     0.38190
C471        C  0.30773450  0.24285029  0.96178372     0.36620
C472        C  0.47505604  0.33961746  0.93750992     0.36620
N473        N  0.27563286  0.22705919  0.94055850    -0.38200
N474        N  0.00591014  0.35740886  0.91441030    -0.38200
N475        N  0.33882582  0.35315486  0.03315860    -0.37650
N476        N  0.46160085  0.22987723  0.98353799    -0.37650
C477        C  0.39590098  0.09350065  0.99288381    -0.04310
C478        C  0.37915435  0.10984920  0.95735956    -0.01430
C479        C  0.36355468  0.13977345  0.96722929     0.03560
C480        C  0.36229468  0.15246951  0.01375565    -0.04310
C481        C  0.38499651  0.14065451  0.54788276    -0.01420
C482        C  0.39744410  0.10814852  0.53837451     0.03550
C483        C  0.37456538  0.09241925  0.91104850     0.38200
C484        C  0.40386971  0.16699457  0.59056951     0.38190
C485        C  0.41647235  0.09406532  0.57571965     0.36620
C486        C  0.34653653  0.15509902  0.92916673     0.36620
N487        N  0.43251021  0.08340425  0.60462059    -0.38200
N488        N  0.33135674  0.16536028  0.89897989    -0.38200
N489        N  0.42049755  0.18622562  0.62489536    -0.37650
N490        N  0.37047731  0.07711890  0.87464240    -0.37650
C491        C  0.34439602  0.18980748  0.57874805    -0.04310
C492        C  0.37490700  0.23585283  0.60092118    -0.01430
C493        C  0.37150248  0.24046792  0.64909884     0.03560
C494        C  0.34038903  0.19709056  0.67890797    -0.04310
C495        C  0.30570903  0.15858892  0.65290518    -0.01420
C496        C  0.31389249  0.14889992  0.60929611     0.03550
C497        C  0.41507397  0.27685724  0.57852205     0.38200
C498        C  0.26345214  0.15173544  0.65562985     0.38190
C499        C  0.28699931  0.09713969  0.59562608     0.36620
C500        C  0.39339885  0.29273213  0.66086813     0.36620
N501        N  0.26529049  0.05535902  0.58568824    -0.38200
N502        N  0.41153096  0.33573212  0.66499295    -0.38200
N503        N  0.22975672  0.14641804  0.65731464    -0.37650
N504        N  0.44869462  0.31127217  0.56495724    -0.37650
C505        C  0.34115799  0.68244481  0.02454860    -0.01460
C506        C  0.34081939  0.69123404  0.23528365    -0.01460
C507        C  0.16739647  0.83777450  0.43183433    -0.01460
C508        C  0.16450162  0.83503317  0.21941121    -0.01460
C509        C  0.41478467  0.56406650  0.48337913     0.77470
Tb510      Tb  0.05300456  0.50757083  0.47833271     1.80740
O511        O  0.42522888  0.55871631  0.44402014    -0.50540
O512        O  0.38138736  0.96012146  0.43214692    -0.57990
C513        C  0.05242843  0.61382839  0.46723046     0.93290
O514        O  0.12668858  0.55798047  0.95231877    -0.57520
Tb515      Tb  0.44917173  0.50714238  0.47132372     1.78060
O516        O  0.06926946  0.94922165  0.50560773    -0.58020
O517        O  0.43055151  0.92465443  0.46768013    -0.76820
O518        O  0.01125774  0.59061224  0.45984738    -0.76140
O519        O  0.47279392  0.50988474  0.04994091    -0.61410
C520        C  0.44811197  0.90100929  0.47693619     0.92880
O521        O  0.03221243  0.51058100  0.39912500    -0.73360
C522        C  0.08192924  0.44475736  0.46726304     0.76320
C523        C  0.35773518  0.94124352  0.46812967     0.77300
O524        O  0.42309150  0.54247633  0.01522795    -0.58610
O525        O  0.37961680  0.95342954  0.00526058    -0.50550
O526        O  0.03163386  0.50663705  0.05516667    -0.76620
O527        O  0.47149228  0.51049674  0.39451539    -0.60610
C528        C  0.50240292  0.51090634  0.37537594     0.91100
C529        C  0.50215397  0.50917018  0.07396394     0.92330
C530        C  0.14517843  0.56953615  0.99142907     0.76670
O531        O  0.07783226  0.46972740  0.43499768    -0.49940
O532        O  0.11775780  0.05189509  0.02425847    -0.51090
O533        O  0.48905150  0.92382194  0.48606316    -0.63940
O534        O  0.07038722  0.59037732  0.47625688    -0.65080
C535        C  0.42809576  0.58411833  0.23941343     0.77470
Tb536      Tb  0.05801627  0.51273338  0.22648105     1.80740
O537        O  0.43105349  0.57123960  0.20010401    -0.50540
O538        O  0.38804342  0.96157724  0.17278959    -0.57990
C539        C  0.05760384  0.61348416  0.19917066     0.93290
O540        O  0.13466358  0.55842766  0.21517538    -0.57520
Tb541      Tb  0.45010434  0.51417445  0.22253327     1.78060
O542        O  0.09248858  0.97017491  0.23883669    -0.58020
O543        O  0.43587963  0.93504591  0.24420467    -0.76820
O544        O  0.01773813  0.59199559  0.21142049    -0.76140
O545        O  0.47251658  0.51107038  0.30030135    -0.61410
C546        C  0.45420200  0.91262207  0.25621071     0.92880
O547        O  0.03258606  0.51155762  0.14927790    -0.73360
C548        C  0.08005999  0.44462884  0.20326298     0.76320
C549        C  0.35853277  0.94679231  0.20287225     0.77300
O550        O  0.43805171  0.56377513  0.27105107    -0.58610
O551        O  0.37494242  0.96448021  0.24170639    -0.50550
O552        O  0.03407560  0.51235462  0.30279680    -0.76620
O553        O  0.47248684  0.51318474  0.14583338    -0.60610
C554        C  0.50225128  0.51137120  0.12627021     0.91100
C555        C  0.50321811  0.51160331  0.32290883     0.92330
C556        C  0.14837015  0.58085315  0.25265985     0.76670
O557        O  0.05417175  0.45059364  0.17914478    -0.49940
O558        O  0.11687448  0.07189296  0.27739543    -0.51090
O559        O  0.49598534  0.93532448  0.25602571    -0.63940
O560        O  0.07446529  0.58947199  0.19178884    -0.65080
C561        C  0.13300926  0.77658599  0.20912076    -0.04310
C562        C  0.13265127  0.75603769  0.16616147    -0.01430
C563        C  0.10709767  0.70258391  0.16135421     0.03560
C564        C  0.08621729  0.66964502  0.20053147    -0.04310
C565        C  0.08707790  0.69051343  0.24215139    -0.01420
C566        C  0.10082396  0.74075269  0.24173375     0.03550
C567        C  0.15976306  0.78943013  0.12802589     0.38200
C568        C  0.06696062  0.65826638  0.28354715     0.38190
C569        C  0.06581460  0.74554607  0.25419685     0.36620
C570        C  0.10047499  0.68173953  0.11641255     0.36620
N571        N  0.03648298  0.74745221  0.26309143    -0.38200
N572        N  0.09387335  0.66472978  0.08041104    -0.38200
N573        N  0.05071737  0.63119208  0.31574293    -0.37650
N574        N  0.18399844  0.81762636  0.09964811    -0.37650
C575        C  0.14275603  0.86440135  0.19960821    -0.04310
C576        C  0.16403318  0.91708455  0.20784315    -0.01430
C577        C  0.14476493  0.94262438  0.19359760     0.03560
C578        C  0.09968748  0.91671743  0.19068054    -0.04310
C579        C  0.07668572  0.86616487  0.17928277    -0.01420
C580        C  0.09889825  0.84119721  0.17901991     0.03550
C581        C  0.19903830  0.94286217  0.24097744     0.38200
C582        C  0.03245528  0.84324947  0.16204460     0.38190
C583        C  0.07486160  0.79309090  0.15734101     0.36620
C584        C  0.16938232  0.99227676  0.17117846     0.36620
N585        N  0.05339260  0.75486694  0.13955710    -0.38200
N586        N  0.18500215  0.53016491  0.15000307    -0.38200
N587        N  0.99793209  0.82739701  0.14654690    -0.37650
N588        N  0.22612743  0.96311285  0.26873590    -0.37650
C589        C  0.21405210  0.86013618  0.19929559    -0.04310
C590        C  0.24265736  0.91304149  0.19298673    -0.01430
C591        C  0.28684887  0.93734550  0.20619503     0.03560
C592        C  0.30954879  0.91697565  0.19402360    -0.04310
C593        C  0.28332627  0.86604517  0.18190588    -0.01420
C594        C  0.23669833  0.83580730  0.19211201     0.03550
C595        C  0.23597215  0.93458486  0.15149440     0.38200
C596        C  0.30468201  0.84546810  0.16167397     0.38190
C597        C  0.21582558  0.78222691  0.20098846     0.36620
C598        C  0.30287679  0.96841304  0.24560886     0.36620
N599        N  0.19908254  0.73945154  0.20883740    -0.38200
N600        N  0.31813804  0.49058828  0.27883387    -0.38200
N601        N  0.32321675  0.83156182  0.14378525    -0.37650
N602        N  0.23026733  0.95164640  0.11826076    -0.37630
C603        C  0.08082809  0.67105848  0.46530112    -0.04310
C604        C  0.06255554  0.69932182  0.46639536    -0.01430
C605        C  0.08799340  0.75148761  0.45288694     0.03560
C606        C  0.13551944  0.78013424  0.45197168    -0.04310
C607        C  0.15158869  0.75166551  0.47127066    -0.01420
C608        C  0.12713363  0.69949040  0.46537516     0.03550
C609        C  0.02167997  0.67869273  0.48984137     0.38200
C610        C  0.18751751  0.77099666  0.50432453     0.38190
C611        C  0.15109527  0.67857729  0.45388157     0.36620
C612        C  0.06358143  0.77285005  0.43854479     0.36620
N613        N  0.17205581  0.66515206  0.44145528    -0.38200
N614        N  0.04372835  0.78906008  0.92627483    -0.38200
N615        N  0.21634730  0.78491841  0.53032819    -0.37650
N616        N  0.49126430  0.66524656  0.01209786    -0.37650
C617        C  0.14807155  0.86915170  0.44524420    -0.04310
C618        C  0.12667732  0.86264287  0.48855959    -0.01430
C619        C  0.10876200  0.89052008  0.49700622     0.03560
C620        C  0.10177047  0.91568533  0.46025370    -0.04310
C621        C  0.11775229  0.91677158  0.41647956    -0.01420
C622        C  0.14774756  0.90365695  0.41250114     0.03550
C623        C  0.12037977  0.82631753  0.02443422     0.38200
C624        C  0.10604388  0.93492577  0.37584033     0.38190
C625        C  0.18602599  0.93924369  0.38503937     0.36620
C626        C  0.09935263  0.89483244  0.04384153     0.36620
N627        N  0.21656481  0.97175181  0.36495897    -0.38200
N628        N  0.09309929  0.90068473  0.08098815    -0.38200
N629        N  0.09469463  0.94971718  0.34540138    -0.37650
N630        N  0.11013338  0.79417838  0.05190071    -0.37650
C631        C  0.21643536  0.86092182  0.44984239    -0.04310
C632        C  0.24076256  0.84221080  0.43227445    -0.01430
C633        C  0.28660875  0.86812119  0.43867028     0.03560
C634        C  0.30903699  0.90952652  0.46685728    -0.04310
C635        C  0.28518412  0.92269410  0.99155857    -0.01420
C636        C  0.24020216  0.90128708  0.48136760     0.03550
C637        C  0.22003107  0.79876324  0.40354764     0.38200
C638        C  0.30736389  0.95969699  0.02706131     0.38190
C639        C  0.22143993  0.92398156  0.00342627     0.36620
C640        C  0.31115136  0.85297950  0.41490394     0.36620
N641        N  0.20932973  0.94493448  0.02180108    -0.38200
N642        N  0.33086279  0.84129622  0.39582516    -0.38200
N643        N  0.32414430  0.48818008  0.05616129    -0.37650
N644        N  0.20338052  0.76430442  0.38051500    -0.37650
C645        C  0.16925394  0.83955828  0.37608871    -0.04310
C646        C  0.20872197  0.86894130  0.34787092    -0.01430
C647        C  0.20675786  0.85581372  0.30163415     0.03560
C648        C  0.16831186  0.84009446  0.27458262    -0.04310
C649        C  0.13292254  0.83015784  0.30247522    -0.01420
C650        C  0.13049168  0.81416035  0.34878782     0.03550
C651        C  0.25092756  0.91247535  0.36246830     0.38200
C652        C  0.10779461  0.85031126  0.29139177     0.38190
C653        C  0.09870412  0.76098499  0.35574298     0.36620
C654        C  0.23495624  0.83997281  0.29286149     0.36620
N655        N  0.07280665  0.71794822  0.36030925    -0.38200
N656        N  0.25620941  0.82442246  0.29010362    -0.38200
N657        N  0.08819892  0.86770526  0.28411693    -0.37650
N658        N  0.28462081  0.94776116  0.37337341    -0.37650
C659        C  0.28984415  0.65633263  0.25560144    -0.04310
C660        C  0.25660458  0.60365819  0.24433961    -0.01430
C661        C  0.21309811  0.57886735  0.25921075     0.03560
C662        C  0.19584937  0.60585468  0.26679859    -0.04310
C663        C  0.22534112  0.65335323  0.28511350    -0.01420
C664        C  0.27168617  0.67372953  0.28688852     0.03550
C665        C  0.26072039  0.57298071  0.21308561     0.38200
C666        C  0.20798529  0.67951761  0.30258779     0.38190
C667        C  0.29822082  0.70908407  0.32216856     0.36620
C668        C  0.18751128  0.02674976  0.27497856     0.36620
N669        N  0.31935755  0.73803851  0.34999823    -0.38200
N670        N  0.16590469  0.98610139  0.29069098    -0.38200
N671        N  0.19232739  0.69917743  0.31539694    -0.37650
N672        N  0.26355003  0.54701680  0.18962361    -0.37650
C673        C  0.36987844  0.74821795  0.25094096    -0.04310
C674        C  0.35259125  0.77833901  0.25032328    -0.01430
C675        C  0.37870296  0.82927876  0.26315446     0.03560
C676        C  0.42481365  0.85594989  0.26636771    -0.04310
C677        C  0.44241371  0.82736627  0.26729082    -0.01420
C678        C  0.41727994  0.77725431  0.25314286     0.03550
C679        C  0.31118475  0.76091430  0.22756449     0.38200
C680        C  0.48481212  0.84746473  0.28803622     0.38190
C681        C  0.44198815  0.76165171  0.23065617     0.36620
C682        C  0.35816288  0.85337980  0.27717866     0.36620
N683        N  0.46105659  0.74793523  0.21353018    -0.38200
N684        N  0.34440587  0.87460858  0.29116451    -0.38200
N685        N  0.01744794  0.86351813  0.30786678    -0.37650
N686        N  0.27799268  0.74548431  0.20887373    -0.37650
C687        C  0.36339841  0.66195356  0.25225635    -0.04310
C688        C  0.39842344  0.67386303  0.28531664    -0.01430
C689        C  0.42076202  0.64863306  0.28247566     0.03560
C690        C  0.40865219  0.61372269  0.24671650    -0.04310
C691        C  0.37091156  0.60118386  0.22110790    -0.01420
C692        C  0.34369390  0.61261320  0.24009836     0.03550
C693        C  0.40855383  0.70607993  0.32350710     0.38200
C694        C  0.35478106  0.56902440  0.18213052     0.38190
C695        C  0.31799940  0.57877578  0.27950847     0.36620
C696        C  0.45331556  0.65656416  0.31652121     0.36620
N697        N  0.29766489  0.55501541  0.31190169    -0.38200
N698        N  0.97844041  0.66202823  0.34469903    -0.38200
N699        N  0.34140637  0.04345577  0.15070756    -0.37650
N700        N  0.41802734  0.73265592  0.35369733    -0.37650
C701        C  0.19413455  0.59953201  0.99801430    -0.04310
C702        C  0.21966295  0.58882951  0.47333397    -0.01430
C703        C  0.26285836  0.60686936  0.48793688     0.03560
C704        C  0.28855036  0.65197007  0.01395451    -0.04310
C705        C  0.26217568  0.66662094  0.03472037    -0.01420
C706        C  0.21560346  0.63774838  0.02992994     0.03550
C707        C  0.20177353  0.55870553  0.43282821     0.38200
C708        C  0.28145187  0.71146949  0.06155531     0.38190
C709        C  0.19013818  0.65006092  0.05574858     0.36620
C710        C  0.27369427  0.57072508  0.48358930     0.36620
N711        N  0.17043718  0.66027303  0.07687758    -0.38200
N712        N  0.28029104  0.54013049  0.47935756    -0.38200
N713        N  0.29535248  0.74665370  0.08324595    -0.37650
N714        N  0.18841384  0.53701355  0.39908885    -0.37650
C715        C  0.36700225  0.73567356  0.49498377    -0.04310
C716        C  0.41211148  0.76343256  0.47857432    -0.01430
C717        C  0.43507008  0.81561455  0.46449261     0.03560
C718        C  0.41908519  0.84396673  0.47749431    -0.04310
C719        C  0.37443534  0.81601050  0.49084586    -0.01420
C720        C  0.34802921  0.76333656  0.48818282     0.03550
C721        C  0.43878859  0.74372599  0.48142234     0.38200
C722        C  0.35545525  0.83836774  0.51292353     0.38190
C723        C  0.30772813  0.74285377  0.46178292     0.36620
C724        C  0.47504996  0.83962275  0.43751144     0.36620
N725        N  0.27562718  0.72706180  0.44055619    -0.38200
N726        N  0.00590441  0.85741427  0.41441227    -0.38200
N727        N  0.33881714  0.85315911  0.53315600    -0.37650
N728        N  0.46159618  0.72988475  0.48354610    -0.37650
C729        C  0.39589600  0.59350702  0.49288586    -0.04310
C730        C  0.37914934  0.60985549  0.45736158    -0.01430
C731        C  0.36354961  0.63977965  0.46723117     0.03560
C732        C  0.36228910  0.65247531  0.51375740    -0.04310
C733        C  0.38500195  0.64064848  0.04788106    -0.01420
C734        C  0.39744974  0.60814270  0.03837249     0.03550
C735        C  0.37456050  0.59242572  0.41105050     0.38200
C736        C  0.40387378  0.66698720  0.09056863     0.38190
C737        C  0.41647874  0.59406002  0.07571722     0.36620
C738        C  0.34653243  0.65510597  0.42916835     0.36620
N739        N  0.43251707  0.58339904  0.10461764    -0.38200
N740        N  0.33135358  0.66536772  0.39898093    -0.38200
N741        N  0.42050056  0.68621735  0.12489512    -0.37650
N742        N  0.37047255  0.57712545  0.37464442    -0.37650
C743        C  0.34440172  0.68980257  0.07874644    -0.04310
C744        C  0.37491310  0.73584816  0.10091878    -0.01430
C745        C  0.37150629  0.74046589  0.14909510     0.03560
C746        C  0.34039098  0.69709028  0.17890456    -0.04310
C747        C  0.30571191  0.65858755  0.15290227    -0.01420
C748        C  0.31389665  0.64889646  0.10929476     0.03550
C749        C  0.41508266  0.77684903  0.07852093     0.38200
C750        C  0.26345501  0.65173428  0.15562529     0.38190
C751        C  0.28700340  0.59713584  0.09562610     0.36620
C752        C  0.39339997  0.79273068  0.16086096     0.36620
N753        N  0.26529442  0.55535491  0.08568917    -0.38200
N754        N  0.41152966  0.83573061  0.16498393    -0.38200
N755        N  0.22975984  0.64641752  0.15730954    -0.37650
N756        N  0.44870509  0.81126020  0.06495565    -0.37650
C757        C  0.34115212  0.68245035  0.52455019    -0.01460
C758        C  0.34081803  0.69123284  0.73528724    -0.01460
C759        C  0.16740255  0.83776666  0.93183178    -0.01460
C760        C  0.16450225  0.83502630  0.71940833    -0.01460
C761        C  0.41478909  0.56405949  0.98337730     0.77470
Tb762      Tb  0.05301040  0.50756358  0.97833398     1.80740
O763        O  0.42523600  0.55871164  0.94401881    -0.50540
O764        O  0.38139339  0.96011428  0.93214589    -0.57990
C765        C  0.05243527  0.61382162  0.96723111     0.93290
O766        O  0.12668310  0.55798758  0.45231869    -0.57520
Tb767      Tb  0.44917723  0.50713614  0.97132325     1.78060
O768        O  0.06927866  0.94921685  0.00560934    -0.58020
O769        O  0.43055957  0.92464922  0.96767725    -0.76820
O770        O  0.01126441  0.59060568  0.95984916    -0.76140
O771        O  0.47278867  0.50988822  0.54994167    -0.61410
C772        C  0.44811907  0.90100364  0.97693751     0.92880
O773        O  0.03221715  0.51057324  0.89912558    -0.73360
C774        C  0.08193483  0.44474921  0.96726379     0.76320
C775        C  0.35774107  0.94123600  0.96812852     0.77300
O776        O  0.42308983  0.54248582  0.51522974    -0.58610
O777        O  0.37961113  0.95343688  0.50526158    -0.50550
O778        O  0.03162790  0.50663915  0.55516553    -0.76620
O779        O  0.47149919  0.51049356  0.89451574    -0.60610
C780        C  0.50240874  0.51090114  0.87537639     0.91100
C781        C  0.50214832  0.50917172  0.57396383     0.92330
C782        C  0.14517258  0.56954391  0.49142913     0.76670
O783        O  0.07783415  0.46971610  0.93499814    -0.49940
O784        O  0.11775156  0.05190346  0.52425809    -0.51090
O785        O  0.48905760  0.92381553  0.98606910    -0.63940
O786        O  0.07039415  0.59037049  0.97625650    -0.65080
C787        C  0.42809647  0.58411810  0.73941696     0.77470
Tb788      Tb  0.05801465  0.51272671  0.72647721     1.80740
O789        O  0.43105225  0.57123719  0.70010790    -0.50540
O790        O  0.38804470  0.96156611  0.67279640    -0.57990
C791        C  0.05760466  0.61347870  0.69916456     0.93290
O792        O  0.13466165  0.55841367  0.71517575    -0.57520
Tb793      Tb  0.45010494  0.51417358  0.72253724     1.78060
O794        O  0.09248392  0.97016463  0.73883549    -0.58020
O795        O  0.43587646  0.93504504  0.74421610    -0.76820
O796        O  0.01773979  0.59199188  0.71141685    -0.76140
O797        O  0.47252320  0.51107096  0.80030309    -0.61410
C798        C  0.45419870  0.91261950  0.75621504     0.92880
O799        O  0.03258099  0.51155386  0.64927603    -0.73360
C800        C  0.08005800  0.44462095  0.70326039     0.76320
C801        C  0.35853374  0.94678930  0.70287674     0.77300
O802        O  0.43805455  0.56377692  0.77105452    -0.58610
O803        O  0.37494313  0.96448568  0.74170860    -0.50550
O804        O  0.03407782  0.51234615  0.80279559    -0.76620
O805        O  0.47248333  0.51318424  0.64583552    -0.60610
C806        C  0.50224640  0.51136993  0.62627029     0.91100
C807        C  0.50322311  0.51159895  0.82290915     0.92330
C808        C  0.14836796  0.58084612  0.75265682     0.76670
O809        O  0.05417310  0.45058931  0.67913958    -0.49940
O810        O  0.11687239  0.07189366  0.77738783    -0.51090
O811        O  0.49598156  0.93531921  0.75601953    -0.63940
O812        O  0.07446495  0.58946517  0.69178297    -0.65080
C813        C  0.13301074  0.77657948  0.70911745    -0.04310
C814        C  0.13264969  0.75603253  0.66615615    -0.01430
C815        C  0.10709556  0.70257890  0.66134756     0.03560
C816        C  0.08621940  0.66963934  0.70052547    -0.04310
C817        C  0.08708449  0.69050691  0.74214769    -0.01420
C818        C  0.10082861  0.74074529  0.74173215     0.03550
C819        C  0.15975956  0.78942647  0.62802039     0.38200
C820        C  0.06697113  0.65825886  0.78354368     0.38190
C821        C  0.06581785  0.74553556  0.75419679     0.36620
C822        C  0.10046804  0.68173555  0.61640460     0.36620
N823        N  0.03648538  0.74743995  0.76309175    -0.38200
N824        N  0.09386257  0.66472654  0.58040225    -0.38200
N825        N  0.05073063  0.63118334  0.81573923    -0.37650
N826        N  0.18399393  0.81762464  0.59964296    -0.37650
C827        C  0.14275519  0.86439369  0.69960704    -0.04310
C828        C  0.16403163  0.91707661  0.70784284    -0.01430
C829        C  0.14476331  0.94261642  0.69359746     0.03560
C830        C  0.09968587  0.91670941  0.69067916    -0.04310
C831        C  0.07668461  0.86615708  0.67928054    -0.01420
C832        C  0.09889711  0.84118924  0.67901895     0.03550
C833        C  0.19903662  0.94285442  0.74097719     0.38200
C834        C  0.03245470  0.84324152  0.66204012     0.38190
C835        C  0.07485877  0.79308122  0.65734300     0.36620
C836        C  0.16938134  0.99227015  0.67118089     0.36620
N837        N  0.05338785  0.75485592  0.63956157    -0.38200
N838        N  0.18500131  0.53015938  0.65000738    -0.38200
N839        N  0.99793203  0.82738738  0.64653997    -0.37650
N840        N  0.22612597  0.96310600  0.76873527    -0.37650
C841        C  0.21405265  0.86013064  0.69929158    -0.04310
C842        C  0.24265775  0.91303629  0.69298741    -0.01430
C843        C  0.28684837  0.93733936  0.70619835     0.03560
C844        C  0.30954973  0.91697119  0.69402725    -0.04310
C845        C  0.28332870  0.86604262  0.68190368    -0.01420
C846        C  0.23669970  0.83580318  0.69210501     0.03550
C847        C  0.23597504  0.93458401  0.65149654     0.38200
C848        C  0.30468712  0.84546818  0.66167286     0.38190
C849        C  0.21582622  0.78222154  0.70097283     0.36620
C850        C  0.30287607  0.96841054  0.74560949     0.36620
N851        N  0.19908245  0.73944490  0.70881437    -0.38200
N852        N  0.31813753  0.49058929  0.77883263    -0.38200
N853        N  0.32322441  0.83156400  0.64378611    -0.37650
N854        N  0.23027299  0.95164972  0.61826410    -0.37630
C855        C  0.08083487  0.67105165  0.96530158    -0.04310
C856        C  0.06256183  0.69931467  0.96639257    -0.01430
C857        C  0.08799967  0.75147992  0.95288259     0.03560
C858        C  0.13552572  0.78012676  0.95196927    -0.04310
C859        C  0.15159494  0.75165925  0.97127155    -0.01420
C860        C  0.12714047  0.69948390  0.96537771     0.03550
C861        C  0.02168554  0.67868617  0.98983681     0.38200
C862        C  0.18752285  0.77099239  0.00432677     0.38190
C863        C  0.15110278  0.67857135  0.95388528     0.36620
C864        C  0.06358793  0.77284200  0.93853784     0.36620
N865        N  0.17206376  0.66514657  0.94145932    -0.38200
N866        N  0.04372157  0.78906836  0.42628377    -0.38200
N867        N  0.21635169  0.78491615  0.03033206    -0.37650
N868        N  0.49125954  0.66525284  0.51210399    -0.37650
C869        C  0.14807703  0.86914313  0.94524231    -0.04310
C870        C  0.12668217  0.86263305  0.98855770    -0.01430
C871        C  0.10876687  0.89051018  0.99700522     0.03560
C872        C  0.10177620  0.91567711  0.96025360    -0.04310
C873        C  0.11775849  0.91676437  0.91647935    -0.01420
C874        C  0.14775326  0.90364897  0.91250002     0.03550
C875        C  0.12037535  0.82632846  0.52443701     0.38200
C876        C  0.10604968  0.93491872  0.87584075     0.38190
C877        C  0.18603121  0.93923420  0.88503707     0.36620
C878        C  0.09934928  0.89484490  0.54384245     0.36620
N879        N  0.21657031  0.97174111  0.86495620    -0.38200
N880        N  0.09309716  0.90069964  0.58098869    -0.38200
N881        N  0.09469944  0.94971006  0.84540277    -0.37650
N882        N  0.11012902  0.79419060  0.55190492    -0.37650
C883        C  0.21644156  0.86091443  0.94983966    -0.04310
C884        C  0.24076865  0.84220275  0.93227305    -0.01430
C885        C  0.28661487  0.86811326  0.93866914     0.03560
C886        C  0.30904292  0.90951881  0.96685588    -0.04310
C887        C  0.28517835  0.92270158  0.49156062    -0.01420
C888        C  0.24020816  0.90127991  0.98136466     0.03550
C889        C  0.22003714  0.79875400  0.90354788     0.38200
C890        C  0.30735860  0.95970488  0.52706293     0.38190
C891        C  0.22143419  0.92398869  0.50342992     0.36620
C892        C  0.31115779  0.85297169  0.91490327     0.36620
N893        N  0.20932461  0.94494185  0.52180549    -0.38200
N894        N  0.33086974  0.84128887  0.89582484    -0.38200
N895        N  0.32413946  0.48818838  0.55616254    -0.37650
N896        N  0.20338722  0.76429372  0.88051713    -0.37650
C897        C  0.16925923  0.83954944  0.87608609    -0.04310
C898        C  0.20872650  0.86892982  0.84786693    -0.01430
C899        C  0.20675986  0.85580175  0.80162973     0.03560
C900        C  0.16831381  0.84008657  0.77457985    -0.04310
C901        C  0.13292575  0.83015040  0.80247457    -0.01420
C902        C  0.13049612  0.81415163  0.84878670     0.03550
C903        C  0.25093305  0.91246320  0.86246267     0.38200
C904        C  0.10779418  0.85029929  0.79139157     0.38190
C905        C  0.09871352  0.76097470  0.85573964     0.36620
C906        C  0.23495118  0.83995105  0.79285647     0.36620
N907        N  0.07282010  0.71793700  0.86030608    -0.38200
N908        N  0.25619815  0.82439276  0.79009722    -0.38200
N909        N  0.08819514  0.86768915  0.78411656    -0.37650
N910        N  0.28462705  0.94774841  0.87336698    -0.37650
C911        C  0.28984247  0.65632983  0.75560392    -0.04310
C912        C  0.25660415  0.60365537  0.74434123    -0.01430
C913        C  0.21309741  0.57886313  0.75921180     0.03560
C914        C  0.19584692  0.60584920  0.76679751    -0.04310
C915        C  0.22533735  0.65334877  0.78511126    -0.01420
C916        C  0.27168246  0.67372564  0.78688927     0.03550
C917        C  0.26072127  0.57297958  0.71308627     0.38200
C918        C  0.20798045  0.67951503  0.80257839     0.38190
C919        C  0.29821491  0.70907792  0.82217147     0.36620
C920        C  0.18751128  0.02674516  0.77497842     0.36620
N921        N  0.31935080  0.73803038  0.85000279    -0.38200
N922        N  0.16590537  0.98609621  0.79068954    -0.38200
N923        N  0.19232114  0.69917613  0.81538031    -0.37650
N924        N  0.26355148  0.54701654  0.68962364    -0.37650
C925        C  0.36987633  0.74821622  0.75094638    -0.04310
C926        C  0.35258871  0.77833682  0.75033000    -0.01430
C927        C  0.37869971  0.82927626  0.76316231     0.03560
C928        C  0.42481053  0.85594786  0.76637501    -0.04310
C929        C  0.44241110  0.82736467  0.76729718    -0.01420
C930        C  0.41727788  0.77725322  0.75314798     0.03550
C931        C  0.31118347  0.76091316  0.72756914     0.38200
C932        C  0.48481282  0.84746645  0.78803557     0.38190
C933        C  0.44198665  0.76165204  0.73065993     0.36620
C934        C  0.35815869  0.85337774  0.77718287     0.36620
N935        N  0.46105593  0.74793671  0.71353383    -0.38200
N936        N  0.34439979  0.87460636  0.79116454    -0.38200
N937        N  0.01745277  0.86352442  0.80785900    -0.37650
N938        N  0.27799270  0.74548430  0.70887609    -0.37650
C939        C  0.36339810  0.66195300  0.75225954    -0.04310
C940        C  0.39842365  0.67386288  0.78531956    -0.01430
C941        C  0.42076294  0.64863369  0.78247829     0.03560
C942        C  0.40865257  0.61372232  0.74671996    -0.04310
C943        C  0.37091154  0.60118296  0.72111178    -0.01420
C944        C  0.34369392  0.61261258  0.74010202     0.03550
C945        C  0.40855475  0.70608022  0.82350987     0.38200
C946        C  0.35478052  0.56902264  0.68213505     0.38190
C947        C  0.31799909  0.57877528  0.77951201     0.36620
C948        C  0.45331962  0.65656877  0.81652151     0.36620
N949        N  0.29766432  0.55501458  0.81190499    -0.38200
N950        N  0.97844785  0.66203710  0.84469695    -0.38200
N951        N  0.34140503  0.04345300  0.65071289    -0.37650
N952        N  0.41802920  0.73265686  0.85369977    -0.37650
C953        C  0.19412874  0.59953931  0.49801492    -0.04310
C954        C  0.21966872  0.58882178  0.97333397    -0.01430
C955        C  0.26286432  0.60686265  0.98793664     0.03560
C956        C  0.28854441  0.65197566  0.51395624    -0.04310
C957        C  0.26216990  0.66662637  0.53472261    -0.01420
C958        C  0.21559768  0.63775443  0.52993181     0.03550
C959        C  0.20177918  0.55869641  0.93282912     0.38200
C960        C  0.28144634  0.71147441  0.56155811     0.38190
C961        C  0.19013258  0.65006615  0.55575185     0.36620
C962        C  0.27370050  0.57071836  0.98359085     0.36620
N963        N  0.17043192  0.66027762  0.57688233    -0.38200
N964        N  0.28029785  0.54012402  0.97936071    -0.38200
N965        N  0.29534722  0.74665838  0.58324913    -0.37650
N966        N  0.18841978  0.53700341  0.89909029    -0.37650
C967        C  0.36700833  0.73566805  0.99498221    -0.04310
C968        C  0.41211734  0.76342666  0.97857199    -0.01430
C969        C  0.43507657  0.81560914  0.96449188     0.03560
C970        C  0.41909225  0.84396136  0.97749515    -0.04310
C971        C  0.37444264  0.81600562  0.99084690    -0.01420
C972        C  0.34803598  0.76333189  0.98818272     0.03550
C973        C  0.43879371  0.74371908  0.98141712     0.38200
C974        C  0.35546333  0.83836326  0.01292539     0.38190
C975        C  0.30773456  0.74285031  0.96178378     0.36620
C976        C  0.47505613  0.83961752  0.93751006     0.36620
N977        N  0.27563292  0.72705918  0.94055855    -0.38200
N978        N  0.00591005  0.85740880  0.91441019    -0.38200
N979        N  0.33882583  0.85315489  0.03315856    -0.37650
N980        N  0.46160096  0.72987735  0.98353826    -0.37650
C981        C  0.39590099  0.59350067  0.99288385    -0.04310
C982        C  0.37915438  0.60984925  0.95735962    -0.01430
C983        C  0.36355475  0.63977354  0.96722936     0.03560
C984        C  0.36229477  0.65246959  0.01375572    -0.04310
C985        C  0.38499658  0.64065456  0.54788278    -0.01420
C986        C  0.39744416  0.60814856  0.53837453     0.03550
C987        C  0.37456536  0.59241928  0.91104855     0.38200
C988        C  0.40386982  0.66699467  0.59056951     0.38190
C989        C  0.41647244  0.59406539  0.57571966     0.36620
C990        C  0.34653658  0.65509911  0.92916682     0.36620
N991        N  0.43251033  0.58340435  0.60462059    -0.38200
N992        N  0.33135678  0.66536038  0.89898000    -0.38200
N993        N  0.42049771  0.68622576  0.62489534    -0.37650
N994        N  0.37047724  0.57711890  0.87464246    -0.37650
C995        C  0.34439608  0.68980751  0.57874810    -0.04310
C996        C  0.37490707  0.73585287  0.60092122    -0.01430
C997        C  0.37150258  0.74046795  0.64909890     0.03560
C998        C  0.34038911  0.69709060  0.67890802    -0.04310
C999        C  0.30570911  0.65858896  0.65290524    -0.01420
C1000       C  0.31389258  0.64889995  0.60929618     0.03550
C1001       C  0.41507401  0.77685729  0.57852204     0.38200
C1002       C  0.26345221  0.65173546  0.65562991     0.38190
C1003       C  0.28699941  0.59713972  0.59562616     0.36620
C1004       C  0.39339909  0.79273217  0.66086824     0.36620
N1005       N  0.26529060  0.55535905  0.58568833    -0.38200
N1006       N  0.41153131  0.83573217  0.66499309    -0.38200
N1007       N  0.22975679  0.64641802  0.65731470    -0.37650
N1008       N  0.44869463  0.81127222  0.56495720    -0.37650
C1009       C  0.84115797  0.18244498  0.02454868    -0.01460
C1010       C  0.84081938  0.19123412  0.23528375    -0.01460
C1011       C  0.66739651  0.33777448  0.43183444    -0.01460
C1012       C  0.66450166  0.33503325  0.21941129    -0.01460
C1013       C  0.91478466  0.06406653  0.48337915     0.77470
Tb1014     Tb  0.55300454  0.00757081  0.47833262     1.80740
O1015       O  0.92522888  0.05871634  0.44402015    -0.50540
O1016       O  0.88138740  0.46012149  0.43214701    -0.57990
C1017       C  0.55242841  0.11382836  0.46723043     0.93290
O1018       O  0.62668857  0.05798031  0.95231876    -0.57520
Tb1019     Tb  0.94917172  0.00714241  0.47132374     1.78060
O1020       O  0.56926938  0.44922155  0.50560771    -0.58020
O1021       O  0.93055155  0.42465447  0.46768015    -0.76820
O1022       O  0.51125770  0.09061222  0.45984740    -0.76140
O1023       O  0.97279391  0.00988488  0.04994094    -0.61410
C1024       C  0.94811200  0.40100933  0.47693628     0.92880
O1025       O  0.53221240  0.01058098  0.39912492    -0.73360
C1026       C  0.58192925  0.94475737  0.46726296     0.76320
C1027       C  0.85773523  0.44124353  0.46812977     0.77300
O1028       O  0.92309154  0.04247656  0.01522800    -0.58610
O1029       O  0.87961686  0.45342975  0.00526070    -0.50550
O1030       O  0.53163384  0.00663695  0.05516660    -0.76620
O1031       O  0.97149229  0.01049679  0.39451540    -0.60610
C1032       C  0.00240292  0.01090638  0.37537596     0.91100
C1033       C  0.00215393  0.00917027  0.07396396     0.92330
C1034       C  0.64517839  0.06953601  0.99142906     0.76670
O1035       O  0.57783236  0.96972749  0.43499761    -0.49940
O1036       O  0.61775777  0.55189499  0.02425850    -0.51090
O1037       O  0.98905151  0.42382197  0.48606332    -0.63940
O1038       O  0.57038720  0.09037728  0.47625678    -0.65080
C1039       C  0.92809576  0.08411842  0.23941348     0.77470
Tb1040     Tb  0.55801626  0.01273343  0.22648099     1.80740
O1041       O  0.93105341  0.07123961  0.20010407    -0.50540
O1042       O  0.88804345  0.46157712  0.17278975    -0.57990
C1043       C  0.55760378  0.11348419  0.19917093     0.93290
O1044       O  0.63466358  0.05842781  0.21517532    -0.57520
Tb1045     Tb  0.95010432  0.01417450  0.22253331     1.78060
O1046       O  0.59248867  0.47017502  0.23883666    -0.58020
O1047       O  0.93587962  0.43504599  0.24420487    -0.76820
O1048       O  0.51773811  0.09199562  0.21142090    -0.76140
O1049       O  0.97251660  0.01107045  0.30030138    -0.61410
C1050       C  0.95420197  0.41262212  0.25621086     0.92880
O1051       O  0.53258608  0.01155761  0.14927783    -0.73360
C1052       C  0.58006003  0.94462895  0.20326288     0.76320
C1053       C  0.85853281  0.44679237  0.20287238     0.77300
O1054       O  0.93805179  0.06377527  0.27105111    -0.58610
O1055       O  0.87494247  0.46448044  0.24170647    -0.50550
O1056       O  0.53407557  0.01235465  0.30279674    -0.76620
O1057       O  0.97248681  0.01318480  0.14583342    -0.60610
C1058       C  0.00225124  0.01137124  0.12627024     0.91100
C1059       C  0.00321812  0.01160334  0.32290885     0.92330
C1060       C  0.64837012  0.08085323  0.25265984     0.76670
O1061       O  0.55417171  0.95059366  0.17914473    -0.49940
O1062       O  0.61687448  0.57189296  0.27739547    -0.51090
O1063       O  0.99598530  0.43532449  0.25602574    -0.63940
O1064       O  0.57446512  0.08947197  0.19178878    -0.65080
C1065       C  0.63300928  0.27658606  0.20912090    -0.04310
C1066       C  0.63265123  0.25603769  0.16616162    -0.01430
C1067       C  0.60709761  0.20258391  0.16135443     0.03560
C1068       C  0.58621727  0.16964506  0.20053173    -0.04310
C1069       C  0.58707795  0.19051354  0.24215163    -0.01420
C1070       C  0.60082401  0.24075280  0.24173394     0.03550
C1071       C  0.65976298  0.28943010  0.12802601     0.38200
C1072       C  0.56696079  0.15826660  0.28354747     0.38190
C1073       C  0.56581462  0.24554617  0.25419696     0.36620
C1074       C  0.60047488  0.18173947  0.11641278     0.36620
N1075       N  0.53648298  0.24745228  0.26309149    -0.38200
N1076       N  0.59387319  0.16472969  0.08041128    -0.38200
N1077       N  0.55071765  0.13119242  0.31574336    -0.37650
N1078       N  0.68399834  0.31762628  0.09964820    -0.37650
C1079       C  0.64275608  0.36440143  0.19960825    -0.04310
C1080       C  0.66403325  0.41708464  0.20784316    -0.01430
C1081       C  0.64476502  0.44262448  0.19359758     0.03560
C1082       C  0.59968757  0.41671754  0.19068052    -0.04310
C1083       C  0.57668579  0.36616497  0.17928281    -0.01420
C1084       C  0.59889830  0.34119729  0.17901996     0.03550
C1085       C  0.69903834  0.44286226  0.24097747     0.38200
C1086       C  0.53245533  0.34324956  0.16204470     0.38190
C1087       C  0.57486161  0.29309095  0.15734111     0.36620
C1088       C  0.66938243  0.49227689  0.17117848     0.36620
N1089       N  0.55339259  0.25486698  0.13955724    -0.38200
N1090       N  0.68500220  0.03016508  0.15000306    -0.38200
N1091       N  0.49793212  0.32739715  0.14654706    -0.37650
N1092       N  0.72612746  0.46311294  0.26873595    -0.37650
C1093       C  0.71405214  0.36013623  0.19929565    -0.04310
C1094       C  0.74265740  0.41304155  0.19298683    -0.01430
C1095       C  0.78684890  0.43734554  0.20619518     0.03560
C1096       C  0.80954882  0.41697570  0.19402374    -0.04310
C1097       C  0.78332631  0.36604524  0.18190595    -0.01420
C1098       C  0.73669836  0.33580736  0.19211203     0.03550
C1099       C  0.73597226  0.43458493  0.15149446     0.38200
C1100       C  0.80468206  0.34546820  0.16167402     0.38190
C1101       C  0.71582560  0.28222695  0.20098839     0.36620
C1102       C  0.80287681  0.46841309  0.24560899     0.36620
N1103       N  0.69908256  0.23945157  0.20883724    -0.38200
N1104       N  0.81813798  0.99058834  0.27883381    -0.38200
N1105       N  0.82321681  0.33156192  0.14378530    -0.37650
N1106       N  0.73026750  0.45164649  0.11826080    -0.37630
C1107       C  0.58082808  0.17105845  0.46530111    -0.04310
C1108       C  0.56255556  0.19932181  0.46639550    -0.01430
C1109       C  0.58799342  0.25148762  0.45288716     0.03560
C1110       C  0.63551946  0.28013422  0.45197178    -0.04310
C1111       C  0.65158871  0.25166545  0.47127064    -0.01420
C1112       C  0.62713362  0.19949035  0.46537509     0.03550
C1113       C  0.52167998  0.17869267  0.48984152     0.38200
C1114       C  0.68751749  0.27099652  0.50432456     0.38190
C1115       C  0.65109523  0.17857722  0.45388144     0.36620
C1116       C  0.56358145  0.27285011  0.43854522     0.36620
N1117       N  0.67205574  0.16515198  0.44145511    -0.38200
N1118       N  0.54372836  0.28905989  0.92627480    -0.38200
N1119       N  0.71634725  0.28491821  0.53032825    -0.37650
N1120       N  0.99126432  0.16524677  0.01209796    -0.37650
C1121       C  0.64807164  0.36915173  0.44524430    -0.04310
C1122       C  0.62667746  0.36264299  0.48855971    -0.01430
C1123       C  0.60876217  0.39052022  0.49700632     0.03560
C1124       C  0.60177058  0.41568540  0.46025377    -0.04310
C1125       C  0.61775236  0.41677158  0.41647962    -0.01420
C1126       C  0.64774763  0.40365695  0.41250121     0.03550
C1127       C  0.62037968  0.32631729  0.02443427     0.38200
C1128       C  0.60604388  0.43492566  0.37584037     0.38190
C1129       C  0.68602605  0.43924367  0.38503942     0.36620
C1130       C  0.59935255  0.39483222  0.04384154     0.36620
N1131       N  0.71656487  0.47175177  0.36495901    -0.38200
N1132       N  0.59309918  0.40068450  0.08098815    -0.38200
N1133       N  0.59469457  0.44971698  0.34540140    -0.37650
N1134       N  0.61013325  0.29417812  0.05190076    -0.37650
C1135       C  0.71643541  0.36092179  0.44984251    -0.04310
C1136       C  0.74076261  0.34221078  0.43227457    -0.01430
C1137       C  0.78660881  0.36812117  0.43867040     0.03560
C1138       C  0.80903705  0.40952650  0.46685740    -0.04310
C1139       C  0.78518412  0.42269414  0.99155868    -0.01420
C1140       C  0.74020222  0.40128705  0.48136773     0.03550
C1141       C  0.72003114  0.29876324  0.40354774     0.38200
C1142       C  0.80736388  0.45969715  0.02706133     0.38190
C1143       C  0.72143985  0.42398145  0.00342634     0.36620
C1144       C  0.81115143  0.35297952  0.41490403     0.36620
N1145       N  0.70932963  0.44493436  0.02180112    -0.38200
N1146       N  0.83086288  0.34129627  0.39582522    -0.38200
N1147       N  0.82414421  0.98818029  0.05616111    -0.37650
N1148       N  0.70338062  0.26430443  0.38051509    -0.37650
C1149       C  0.66925398  0.33955826  0.37608881    -0.04310
C1150       C  0.70872202  0.36894122  0.34787102    -0.01430
C1151       C  0.70675788  0.35581368  0.30163423     0.03560
C1152       C  0.66831192  0.34009457  0.27458269    -0.04310
C1153       C  0.63292264  0.33015805  0.30247529    -0.01420
C1154       C  0.63049172  0.31416054  0.34878789     0.03550
C1155       C  0.75092762  0.41247528  0.36246838     0.38200
C1156       C  0.60779464  0.35031137  0.29139176     0.38190
C1157       C  0.59870377  0.26098528  0.35574311     0.36620
C1158       C  0.73495617  0.33997265  0.29286154     0.36620
N1159       N  0.57280598  0.21794857  0.36030932    -0.38200
N1160       N  0.75620927  0.32442221  0.29010364    -0.38200
N1161       N  0.58819893  0.36770532  0.28411686    -0.37650
N1162       N  0.78462087  0.44776108  0.37337349    -0.37650
C1163       C  0.78984413  0.15633271  0.25560152    -0.04310
C1164       C  0.75660457  0.10365826  0.24433967    -0.01430
C1165       C  0.71309809  0.07886742  0.25921078     0.03560
C1166       C  0.69584933  0.10585474  0.26679860    -0.04310
C1167       C  0.72534108  0.15335330  0.28511351    -0.01420
C1168       C  0.77168612  0.17372959  0.28688858     0.03550
C1169       C  0.76072040  0.07298081  0.21308566     0.38200
C1170       C  0.70798524  0.17951770  0.30258772     0.38190
C1171       C  0.79822074  0.20908410  0.32216865     0.36620
C1172       C  0.68751130  0.52674982  0.27497862     0.36620
N1173       N  0.81935745  0.23803853  0.34999834    -0.38200
N1174       N  0.66590471  0.48610145  0.29069105    -0.38200
N1175       N  0.69232732  0.19917755  0.31539679    -0.37650
N1176       N  0.76355006  0.04701692  0.18962366    -0.37650
C1177       C  0.86987841  0.24821803  0.25094109    -0.04310
C1178       C  0.85259122  0.27833909  0.25032341    -0.01430
C1179       C  0.87870292  0.32927883  0.26315462     0.03560
C1180       C  0.92481361  0.35594996  0.26636789    -0.04310
C1181       C  0.94241368  0.32736633  0.26729100    -0.01420
C1182       C  0.91727991  0.27725438  0.25314301     0.03550
C1183       C  0.81118474  0.26091439  0.22756459     0.38200
C1184       C  0.98481212  0.34746483  0.28803631     0.38190
C1185       C  0.94198813  0.26165182  0.23065629     0.36620
C1186       C  0.85816283  0.35337988  0.27717874     0.36620
N1187       N  0.96105658  0.24793536  0.21353030    -0.38200
N1188       N  0.84440579  0.37460867  0.29116452    -0.38200
N1189       N  0.51744785  0.36351795  0.30786674    -0.37650
N1190       N  0.77799269  0.24548441  0.20887380    -0.37650
C1191       C  0.86339840  0.16195364  0.25225644    -0.04310
C1192       C  0.89842344  0.17386311  0.28531672    -0.01430
C1193       C  0.92076204  0.14863316  0.28247572     0.03560
C1194       C  0.90865219  0.11372277  0.24671656    -0.04310
C1195       C  0.87091155  0.10118394  0.22110798    -0.01420
C1196       C  0.84369389  0.11261329  0.24009845     0.03550
C1197       C  0.90855383  0.20608000  0.32350719     0.38200
C1198       C  0.85478106  0.06902451  0.18213058     0.38190
C1199       C  0.81799939  0.07877586  0.27950854     0.36620
C1200       C  0.95331566  0.15656435  0.31652120     0.36620
N1201       N  0.79766488  0.05501548  0.31190175    -0.38200
N1202       N  0.47844004  0.16202773  0.34469911    -0.38200
N1203       N  0.84140641  0.54345590  0.15070769    -0.37650
N1204       N  0.91802735  0.23265599  0.35369743    -0.37650
C1205       C  0.69413451  0.09953194  0.99801433    -0.04310
C1206       C  0.71966295  0.08882952  0.47333397    -0.01430
C1207       C  0.76285835  0.10686938  0.48793690     0.03560
C1208       C  0.78855034  0.15197017  0.01395455    -0.04310
C1209       C  0.76217560  0.16662098  0.03472039    -0.01420
C1210       C  0.71560337  0.13774833  0.02992996     0.03550
C1211       C  0.70177354  0.05870553  0.43282822     0.38200
C1212       C  0.78145172  0.21146951  0.06155534     0.38190
C1213       C  0.69013803  0.15006079  0.05574859     0.36620
C1214       C  0.77369427  0.07072510  0.48358934     0.36620
N1215       N  0.67043697  0.16027282  0.07687758    -0.38200
N1216       N  0.78029105  0.04013052  0.47935761    -0.38200
N1217       N  0.79535229  0.24665371  0.08324598    -0.37650
N1218       N  0.68841386  0.03701353  0.39908886    -0.37650
C1219       C  0.86700225  0.23567359  0.49498381    -0.04310
C1220       C  0.91211147  0.26343259  0.47857434    -0.01430
C1221       C  0.93507008  0.31561459  0.46449266     0.03560
C1222       C  0.91908520  0.34396677  0.47749439    -0.04310
C1223       C  0.87443536  0.31601055  0.49084596    -0.01420
C1224       C  0.84802921  0.26333661  0.48818290     0.03550
C1225       C  0.93878857  0.24372601  0.48142232     0.38200
C1226       C  0.85545530  0.33836779  0.51292367     0.38190
C1227       C  0.80772814  0.24285386  0.46178302     0.36620
C1228       C  0.97504995  0.33962279  0.43751148     0.36620
N1229       N  0.77562718  0.22706191  0.44055630    -0.38200
N1230       N  0.50590450  0.35741425  0.41441233    -0.38200
N1231       N  0.83881721  0.35315917  0.53315617    -0.37650
N1232       N  0.96159616  0.22988477  0.48354604    -0.37650
C1233       C  0.89589599  0.09350705  0.49288587    -0.04310
C1234       C  0.87914935  0.10985554  0.45736160    -0.01430
C1235       C  0.86354960  0.13977969  0.46723119     0.03560
C1236       C  0.86228909  0.15247534  0.51375742    -0.04310
C1237       C  0.88500196  0.14064868  0.04788113    -0.01420
C1238       C  0.89744976  0.10814292  0.03837255     0.03550
C1239       C  0.87456055  0.09242581  0.41105051     0.38200
C1240       C  0.90387376  0.16698738  0.09056872     0.38190
C1241       C  0.91647876  0.09406023  0.07571728     0.36620
C1242       C  0.84653242  0.15510601  0.42916838     0.36620
N1243       N  0.93251708  0.08339925  0.10461771    -0.38200
N1244       N  0.83135357  0.16536776  0.39898096    -0.38200
N1245       N  0.92050051  0.18621752  0.12489522    -0.37650
N1246       N  0.87047262  0.07712558  0.37464441    -0.37650
C1247       C  0.84440168  0.18980273  0.07874652    -0.04310
C1248       C  0.87491305  0.23584833  0.10091887    -0.01430
C1249       C  0.87150627  0.24046602  0.14909521     0.03560
C1250       C  0.84039097  0.19709040  0.17890466    -0.04310
C1251       C  0.80571189  0.15858768  0.15290236    -0.01420
C1252       C  0.81389662  0.14889661  0.10929484     0.03550
C1253       C  0.91508258  0.27684924  0.07852101     0.38200
C1254       C  0.76345500  0.15173442  0.15562539     0.38190
C1255       C  0.78700338  0.09713599  0.09562619     0.36620
C1256       C  0.89339998  0.29273080  0.16086112     0.36620
N1257       N  0.76529441  0.05535505  0.08568927    -0.38200
N1258       N  0.91152972  0.33573073  0.16498412    -0.38200
N1259       N  0.72975983  0.14641767  0.15730964    -0.37650
N1260       N  0.94870499  0.31126044  0.06495573    -0.37650
C1261       C  0.84115210  0.18245037  0.52455022    -0.01460
C1262       C  0.84081801  0.19123290  0.73528727    -0.01460
C1263       C  0.66740256  0.33776648  0.93183188    -0.01460
C1264       C  0.66450229  0.33502622  0.71940842    -0.01460
C1265       C  0.91478911  0.06405971  0.98337736     0.77470
Tb1266     Tb  0.55301036  0.00756340  0.97833390     1.80740
O1267       O  0.92523599  0.05871183  0.94401885    -0.50540
O1268       O  0.88139342  0.46011446  0.93214601    -0.57990
C1269       C  0.55243524  0.11382143  0.96723112     0.93290
O1270       O  0.62668310  0.05798756  0.45231864    -0.57520
Tb1271     Tb  0.94917723  0.00713633  0.97132328     1.78060
O1272       O  0.56927858  0.44921663  0.00560931    -0.58020
O1273       O  0.93055958  0.42464942  0.96767737    -0.76820
O1274       O  0.51126437  0.09060550  0.95984920    -0.76140
O1275       O  0.97278864  0.00988826  0.54994169    -0.61410
C1276       C  0.94811908  0.40100382  0.97693760     0.92880
O1277       O  0.53221710  0.01057308  0.89912550    -0.73360
C1278       C  0.58193479  0.94474905  0.96726369     0.76320
C1279       C  0.85774112  0.44123617  0.96812865     0.77300
O1280       O  0.92308980  0.04248583  0.51522975    -0.58610
O1281       O  0.87961120  0.45343689  0.50526167    -0.50550
O1282       O  0.53162787  0.00663910  0.55516544    -0.76620
O1283       O  0.97149920  0.01049372  0.89451577    -0.60610
C1284       C  0.00240873  0.01090128  0.87537642     0.91100
C1285       C  0.00214829  0.00917175  0.57396386     0.92330
C1286       C  0.64517256  0.06954390  0.49142909     0.76670
O1287       O  0.57783419  0.96971601  0.93499806    -0.49940
O1288       O  0.61775157  0.55190350  0.52425810    -0.51090
O1289       O  0.98905762  0.42381571  0.98606913    -0.63940
O1290       O  0.57039412  0.09037030  0.97625643    -0.65080
C1291       C  0.92809646  0.08411819  0.73941699     0.77470
Tb1292     Tb  0.55801462  0.01272666  0.72647711     1.80740
O1293       O  0.93105225  0.07123727  0.70010793    -0.50540
O1294       O  0.88804476  0.46156609  0.67279655    -0.57990
C1295       C  0.55760459  0.11347861  0.69916450     0.93290
O1296       O  0.63466163  0.05841359  0.71517573    -0.57520
Tb1297     Tb  0.95010494  0.01417366  0.72253728     1.78060
O1298       O  0.59248406  0.47016473  0.73883548    -0.58020
O1299       O  0.93587648  0.43504514  0.74421624    -0.76820
O1300       O  0.51773973  0.09199178  0.71141682    -0.76140
O1301       O  0.97252319  0.01107107  0.80030312    -0.61410
C1302       C  0.95419870  0.41261957  0.75621512     0.92880
O1303       O  0.53258096  0.01155380  0.64927594    -0.73360
C1304       C  0.58005799  0.94462090  0.70326030     0.76320
C1305       C  0.85853381  0.44678938  0.70287688     0.77300
O1306       O  0.93805454  0.06377700  0.77105455    -0.58610
O1307       O  0.87494321  0.46448588  0.74170871    -0.50550
O1308       O  0.53407779  0.01234605  0.80279549    -0.76620
O1309       O  0.97248331  0.01318431  0.64583555    -0.60610
C1310       C  0.00224637  0.01136998  0.62627033     0.91100
C1311       C  0.00322310  0.01159906  0.82290918     0.92330
C1312       C  0.64836792  0.08084611  0.75265675     0.76670
O1313       O  0.55417304  0.95058920  0.67913952    -0.49940
O1314       O  0.61687240  0.57189378  0.77738773    -0.51090
O1315       O  0.99598156  0.43531924  0.75601957    -0.63940
O1316       O  0.57446487  0.08946508  0.69178284    -0.65080
C1317       C  0.63301077  0.27657940  0.70911752    -0.04310
C1318       C  0.63264972  0.25603247  0.66615620    -0.01430
C1319       C  0.60709555  0.20257885  0.66134758     0.03560
C1320       C  0.58621933  0.16963925  0.70052545    -0.04310
C1321       C  0.58708436  0.19050680  0.74214767    -0.01420
C1322       C  0.60082857  0.24074521  0.74173217     0.03550
C1323       C  0.65975962  0.28942642  0.62802046     0.38200
C1324       C  0.56697091  0.15825871  0.78354361     0.38190
C1325       C  0.56581789  0.24553560  0.75419686     0.36620
C1326       C  0.60046804  0.18173553  0.61640460     0.36620
N1327       N  0.53648549  0.24744010  0.76309186    -0.38200
N1328       N  0.59386256  0.16472655  0.58040224    -0.38200
N1329       N  0.55073032  0.13118314  0.81573912    -0.37650
N1330       N  0.68399402  0.31762459  0.59964305    -0.37650
C1331       C  0.64275523  0.36439362  0.69960718    -0.04310
C1332       C  0.66403167  0.41707653  0.70784300    -0.01430
C1333       C  0.64476336  0.44261636  0.69359761     0.03560
C1334       C  0.59968593  0.41670936  0.69067928    -0.04310
C1335       C  0.57668467  0.36615704  0.67928063    -0.01420
C1336       C  0.59889716  0.34118919  0.67901906     0.03550
C1337       C  0.69903663  0.44285433  0.74097738     0.38200
C1338       C  0.53245479  0.34324153  0.66204012     0.38190
C1339       C  0.57485883  0.29308119  0.65734307     0.36620
C1340       C  0.66938140  0.49227008  0.67118102     0.36620
N1341       N  0.55338791  0.25485591  0.63956161    -0.38200
N1342       N  0.68500131  0.03015935  0.65000740    -0.38200
N1343       N  0.49793216  0.32738744  0.64653989    -0.37650
N1344       N  0.72612596  0.46310590  0.76873548    -0.37650
C1345       C  0.71405271  0.36013060  0.69929168    -0.04310
C1346       C  0.74265778  0.41303625  0.69298759    -0.01430
C1347       C  0.78684839  0.43733933  0.70619856     0.03560
C1348       C  0.80954979  0.41697122  0.69402743    -0.04310
C1349       C  0.78332880  0.36604268  0.68190376    -0.01420
C1350       C  0.73669979  0.33580318  0.69210505     0.03550
C1351       C  0.73597512  0.43458402  0.65149673     0.38200
C1352       C  0.80468726  0.34546832  0.66167286     0.38190
C1353       C  0.71582630  0.28222153  0.70097269     0.36620
C1354       C  0.80287610  0.46841056  0.74560967     0.36620
N1355       N  0.69908253  0.23944486  0.70881407    -0.38200
N1356       N  0.81813747  0.99058934  0.77883259    -0.38200
N1357       N  0.82322458  0.33156420  0.64378606    -0.37650
N1358       N  0.73027310  0.45164977  0.61826429    -0.37630
C1359       C  0.58083485  0.17105146  0.96530163    -0.04310
C1360       C  0.56256182  0.19931449  0.96639262    -0.01430
C1361       C  0.58799967  0.25147973  0.95288265     0.03560
C1362       C  0.63552572  0.28012658  0.95196936    -0.04310
C1363       C  0.65159493  0.25165905  0.97127163    -0.01420
C1364       C  0.62714045  0.19948370  0.96537777     0.03550
C1365       C  0.52168550  0.17868597  0.98983680     0.38200
C1366       C  0.68752280  0.27099217  0.00432689     0.38190
C1367       C  0.65110275  0.17857116  0.95388528     0.36620
C1368       C  0.56358794  0.27284181  0.93853785     0.36620
N1369       N  0.67206371  0.16514639  0.94145926    -0.38200
N1370       N  0.54372159  0.28906847  0.42628436    -0.38200
N1371       N  0.71635161  0.28491592  0.03033223    -0.37650
N1372       N  0.99125952  0.16525288  0.51210399    -0.37650
C1373       C  0.64807701  0.36914292  0.94524238    -0.04310
C1374       C  0.62668212  0.36263283  0.98855775    -0.01430
C1375       C  0.60876682  0.39050996  0.99700525     0.03560
C1376       C  0.60177620  0.41567693  0.96025361    -0.04310
C1377       C  0.61775851  0.41676419  0.91647938    -0.01420
C1378       C  0.64775327  0.40364876  0.91250007     0.03550
C1379       C  0.62037551  0.32632860  0.52443714     0.38200
C1380       C  0.60604970  0.43491853  0.87584077     0.38190
C1381       C  0.68603125  0.43923399  0.88503717     0.36620
C1382       C  0.59934954  0.39484515  0.54384255     0.36620
N1383       N  0.71657038  0.47174090  0.86495634    -0.38200
N1384       N  0.59309749  0.40069998  0.58098880    -0.38200
N1385       N  0.59469943  0.44970983  0.84540280    -0.37650
N1386       N  0.61012917  0.29419075  0.55190507    -0.37650
C1387       C  0.71644158  0.36091430  0.94983982    -0.04310
C1388       C  0.74076873  0.34220267  0.93227327    -0.01430
C1389       C  0.78661496  0.36811329  0.93866934     0.03560
C1390       C  0.80904297  0.40951889  0.96685602    -0.04310
C1391       C  0.78517840  0.42270155  0.49156075    -0.01420
C1392       C  0.74020814  0.40127984  0.98136478     0.03550
C1393       C  0.72003729  0.29875389  0.90354814     0.38200
C1394       C  0.80735866  0.45970485  0.52706306     0.38190
C1395       C  0.72143426  0.42398867  0.50343006     0.36620
C1396       C  0.81115796  0.35297184  0.91490344     0.36620
N1397       N  0.70932473  0.44494186  0.52180567    -0.38200
N1398       N  0.83086997  0.34128913  0.89582496    -0.38200
N1399       N  0.82413943  0.98818837  0.55616253    -0.37650
N1400       N  0.70338748  0.26429359  0.88051743    -0.37650
C1401       C  0.66925927  0.33954923  0.87608620    -0.04310
C1402       C  0.70872656  0.36892956  0.84786704    -0.01430
C1403       C  0.70675990  0.35580150  0.80162983     0.03560
C1404       C  0.66831386  0.34008642  0.77457995    -0.04310
C1405       C  0.63292582  0.33015026  0.80247469    -0.01420
C1406       C  0.63049618  0.31415144  0.84878680     0.03550
C1407       C  0.75093310  0.41246296  0.86246274     0.38200
C1408       C  0.60779444  0.35029941  0.79139179     0.38190
C1409       C  0.59871359  0.26097450  0.85573970     0.36620
C1410       C  0.73495108  0.33995060  0.79285657     0.36620
N1411       N  0.57282017  0.21793680  0.86030614    -0.38200
N1412       N  0.75619792  0.32439216  0.79009731    -0.38200
N1413       N  0.58819562  0.36768954  0.78411683    -0.37650
N1414       N  0.78462710  0.44774819  0.87336702    -0.37650
C1415       C  0.78984244  0.15632990  0.75560394    -0.04310
C1416       C  0.75660413  0.10365543  0.74434128    -0.01430
C1417       C  0.71309739  0.07886318  0.75921186     0.03560
C1418       C  0.69584687  0.10584923  0.76679750    -0.04310
C1419       C  0.72533728  0.15334886  0.78511115    -0.01420
C1420       C  0.77168240  0.17372574  0.78688921     0.03550
C1421       C  0.76072125  0.07297963  0.71308632     0.38200
C1422       C  0.70798038  0.17951520  0.80257810     0.38190
C1423       C  0.79821480  0.20907803  0.82217142     0.36620
C1424       C  0.68751135  0.52674524  0.77497857     0.36620
N1425       N  0.81935064  0.23803048  0.85000277    -0.38200
N1426       N  0.66590548  0.48609629  0.79068971    -0.38200
N1427       N  0.69232108  0.19917637  0.81537986    -0.37650
N1428       N  0.76355146  0.04701658  0.68962370    -0.37650
C1429       C  0.86987631  0.24821628  0.75094641    -0.04310
C1430       C  0.85258870  0.27833689  0.75032999    -0.01430
C1431       C  0.87869968  0.32927632  0.76316231     0.03560
C1432       C  0.92481051  0.35594792  0.76637508    -0.04310
C1433       C  0.94241107  0.32736472  0.76729727    -0.01420
C1434       C  0.91727785  0.27725327  0.75314805     0.03550
C1435       C  0.81118351  0.26091325  0.72756904     0.38200
C1436       C  0.98481279  0.34746649  0.78803566     0.38190
C1437       C  0.94198663  0.26165211  0.73066000     0.36620
C1438       C  0.85815863  0.35337780  0.77718281     0.36620
N1439       N  0.96105591  0.24793677  0.71353391    -0.38200
N1440       N  0.84439967  0.37460637  0.79116442    -0.38200
N1441       N  0.51745293  0.36352440  0.80785844    -0.37650
N1442       N  0.77799277  0.24548438  0.70887590    -0.37650
C1443       C  0.86339807  0.16195305  0.75225959    -0.04310
C1444       C  0.89842363  0.17386293  0.78531961    -0.01430
C1445       C  0.92076293  0.14863376  0.78247832     0.03560
C1446       C  0.90865255  0.11372240  0.74671999    -0.04310
C1447       C  0.87091152  0.10118302  0.72111182    -0.01420
C1448       C  0.84369389  0.11261264  0.74010206     0.03550
C1449       C  0.90855472  0.20608027  0.82350993     0.38200
C1450       C  0.85478050  0.06902269  0.68213510     0.38190
C1451       C  0.81799907  0.07877533  0.77951205     0.36620
C1452       C  0.95331963  0.15656886  0.81652153     0.36620
N1453       N  0.79766428  0.05501461  0.81190503    -0.38200
N1454       N  0.47844787  0.16203711  0.84469679    -0.38200
N1455       N  0.84140506  0.54345304  0.65071303    -0.37650
N1456       N  0.91802917  0.23265690  0.85369983    -0.37650
C1457       C  0.69412873  0.09953932  0.49801491    -0.04310
C1458       C  0.71966874  0.08882177  0.97333403    -0.01430
C1459       C  0.76286435  0.10686273  0.98793671     0.03560
C1460       C  0.78854440  0.15197567  0.51395626    -0.04310
C1461       C  0.76216987  0.16662637  0.53472263    -0.01420
C1462       C  0.71559765  0.13775442  0.52993180     0.03550
C1463       C  0.70177921  0.05869632  0.93282923     0.38200
C1464       C  0.78144630  0.21147440  0.56155815     0.38190
C1465       C  0.69013254  0.15006613  0.55575184     0.36620
C1466       C  0.77370058  0.07071846  0.98359102     0.36620
N1467       N  0.67043187  0.16027758  0.57688232    -0.38200
N1468       N  0.78029796  0.04012413  0.97936097    -0.38200
N1469       N  0.79534716  0.24665835  0.58324918    -0.37650
N1470       N  0.68841984  0.03700323  0.89909044    -0.37650
C1471       C  0.86700831  0.23566823  0.99498230    -0.04310
C1472       C  0.91211732  0.26342684  0.97857206    -0.01430
C1473       C  0.93507655  0.31560932  0.96449195     0.03560
C1474       C  0.91909224  0.34396155  0.97749524    -0.04310
C1475       C  0.87444265  0.31600581  0.99084705    -0.01420
C1476       C  0.84803596  0.26333208  0.98818287     0.03550
C1477       C  0.93879370  0.24371928  0.98141722     0.38200
C1478       C  0.85546338  0.33836347  0.01292561     0.38190
C1479       C  0.80773455  0.24285053  0.96178392     0.36620
C1480       C  0.97505610  0.33961770  0.93751012     0.36620
N1481       N  0.77563291  0.22705942  0.94055869    -0.38200
N1482       N  0.50591006  0.35740863  0.91441008    -0.38200
N1483       N  0.83882593  0.35315513  0.03315884    -0.37650
N1484       N  0.96160098  0.22987757  0.98353838    -0.37650
C1485       C  0.89590102  0.09350090  0.99288391    -0.04310
C1486       C  0.87915441  0.10984948  0.95735968    -0.01430
C1487       C  0.86355477  0.13977376  0.96722943     0.03560
C1488       C  0.86229478  0.15246980  0.01375580    -0.04310
C1489       C  0.88499656  0.14065458  0.54788281    -0.01420
C1490       C  0.89744413  0.10814857  0.53837455     0.03550
C1491       C  0.87456538  0.09241951  0.91104861     0.38200
C1492       C  0.90386979  0.16699466  0.59056955     0.38190
C1493       C  0.91647241  0.09406538  0.57571968     0.36620
C1494       C  0.84653658  0.15509932  0.92916690     0.36620
N1495       N  0.93251028  0.08340432  0.60462061    -0.38200
N1496       N  0.83135676  0.16536059  0.89898009    -0.38200
N1497       N  0.92049765  0.18622572  0.62489539    -0.37650
N1498       N  0.87047725  0.07711913  0.87464252    -0.37650
C1499       C  0.84439607  0.18980754  0.57874813    -0.04310
C1500       C  0.87490707  0.23585289  0.60092125    -0.01430
C1501       C  0.87150259  0.24046798  0.64909893     0.03560
C1502       C  0.84038910  0.19709064  0.67890806    -0.04310
C1503       C  0.80570909  0.15858900  0.65290527    -0.01420
C1504       C  0.81389256  0.14889998  0.60929621     0.03550
C1505       C  0.91507403  0.27685727  0.57852208     0.38200
C1506       C  0.76345218  0.15173547  0.65562994     0.38190
C1507       C  0.78699939  0.09713975  0.59562619     0.36620
C1508       C  0.89339914  0.29273220  0.66086827     0.36620
N1509       N  0.76529057  0.05535908  0.58568837    -0.38200
N1510       N  0.91153140  0.33573221  0.66499313    -0.38200
N1511       N  0.72975675  0.14641801  0.65731473    -0.37650
N1512       N  0.94869468  0.31127217  0.56495724    -0.37650
C1513       C  0.84115791  0.68244491  0.02454862    -0.01460
C1514       C  0.84081938  0.69123413  0.23528369    -0.01460
C1515       C  0.66739647  0.83777450  0.43183426    -0.01460
C1516       C  0.66450164  0.83503327  0.21941112    -0.01460
C1517       C  0.91478469  0.56406654  0.48337920     0.77470
Tb1518     Tb  0.55300457  0.50757082  0.47833258     1.80740
O1519       O  0.92522889  0.55871632  0.44402021    -0.50540
O1520       O  0.88138737  0.96012148  0.43214690    -0.57990
C1521       C  0.55242841  0.61382836  0.46723031     0.93290
O1522       O  0.62668851  0.55798023  0.95231868    -0.57520
Tb1523     Tb  0.94917176  0.50714242  0.47132382     1.78060
O1524       O  0.56926941  0.94922158  0.50560769    -0.58020
O1525       O  0.93055151  0.92465445  0.46768010    -0.76820
O1526       O  0.51125770  0.59061221  0.45984730    -0.76140
O1527       O  0.97279398  0.50988491  0.04994103    -0.61410
C1528       C  0.94811196  0.90100931  0.47693621     0.92880
O1529       O  0.53221241  0.51058099  0.39912488    -0.73360
C1530       C  0.58192929  0.44475737  0.46726300     0.76320
C1531       C  0.85773519  0.94124352  0.46812964     0.77300
O1532       O  0.92309167  0.54247666  0.01522806    -0.58610
O1533       O  0.87961674  0.95342968  0.00526059    -0.50550
O1534       O  0.53163381  0.50663690  0.05516655    -0.76620
O1535       O  0.97149233  0.51049682  0.39451549    -0.60610
C1536       C  0.00240297  0.51090639  0.37537605     0.91100
C1537       C  0.00215400  0.50917031  0.07396406     0.92330
C1538       C  0.64517834  0.56953597  0.99142898     0.76670
O1539       O  0.57783246  0.46972753  0.43499764    -0.49940
O1540       O  0.61775782  0.05189498  0.02425858    -0.51090
O1541       O  0.98905148  0.92382196  0.48606322    -0.63940
O1542       O  0.57038721  0.59037730  0.47625668    -0.65080
C1543       C  0.92809581  0.58411845  0.23941351     0.77470
Tb1544     Tb  0.55801627  0.51273345  0.22648095     1.80740
O1545       O  0.93105327  0.57123944  0.20010412    -0.50540
O1546       O  0.88804345  0.96157732  0.17278954    -0.57990
C1547       C  0.55760378  0.61348420  0.19917083     0.93290
O1548       O  0.63466359  0.55842781  0.21517526    -0.57520
Tb1549     Tb  0.95010436  0.51417451  0.22253340     1.78060
O1550       O  0.59248862  0.97017494  0.23883664    -0.58020
O1551       O  0.93587959  0.93504597  0.24420468    -0.76820
O1552       O  0.51773812  0.59199564  0.21142085    -0.76140
O1553       O  0.97251668  0.51107051  0.30030146    -0.61410
C1554       C  0.95420196  0.91262213  0.25621074     0.92880
O1555       O  0.53258607  0.51155759  0.14927778    -0.73360
C1556       C  0.58006006  0.44462896  0.20326295     0.76320
C1557       C  0.85853278  0.94679237  0.20287219     0.77300
O1558       O  0.93805206  0.56377552  0.27105114    -0.58610
O1559       O  0.87494241  0.96448026  0.24170634    -0.50550
O1560       O  0.53407559  0.51235469  0.30279669    -0.76620
O1561       O  0.97248683  0.51318477  0.14583351    -0.60610
C1562       C  0.00225128  0.51137126  0.12627033     0.91100
C1563       C  0.00321816  0.51160335  0.32290894     0.92330
C1564       C  0.64837014  0.58085326  0.25265976     0.76670
O1565       O  0.55417172  0.45059361  0.17914478    -0.49940
O1566       O  0.61687445  0.07189288  0.27739556    -0.51090
O1567       O  0.99598530  0.93532454  0.25602573    -0.63940
O1568       O  0.57446511  0.58947196  0.19178867    -0.65080
C1569       C  0.63300927  0.77658607  0.20912074    -0.04310
C1570       C  0.63265121  0.75603769  0.16616147    -0.01430
C1571       C  0.60709759  0.70258390  0.16135429     0.03560
C1572       C  0.58621729  0.66964507  0.20053161    -0.04310
C1573       C  0.58707803  0.69051357  0.24215152    -0.01420
C1574       C  0.60082404  0.74075282  0.24173381     0.03550
C1575       C  0.65976296  0.78943008  0.12802585     0.38200
C1576       C  0.56696094  0.65826665  0.28354739     0.38190
C1577       C  0.56581460  0.74554610  0.25419680     0.36620
C1578       C  0.60047483  0.68173945  0.11641265     0.36620
N1579       N  0.53648291  0.74745213  0.26309133    -0.38200
N1580       N  0.59387312  0.66472966  0.08041115    -0.38200
N1581       N  0.55071786  0.63119249  0.31574329    -0.37650
N1582       N  0.68399831  0.81762626  0.09964803    -0.37650
C1583       C  0.64275607  0.86440145  0.19960808    -0.04310
C1584       C  0.66403323  0.91708466  0.20784299    -0.01430
C1585       C  0.64476499  0.94262450  0.19359742     0.03560
C1586       C  0.59968755  0.91671756  0.19068039    -0.04310
C1587       C  0.57668576  0.86616497  0.17928269    -0.01420
C1588       C  0.59889828  0.84119730  0.17901982     0.03550
C1589       C  0.69903834  0.94286228  0.24097729     0.38200
C1590       C  0.53245527  0.84324953  0.16204467     0.38190
C1591       C  0.57486159  0.79309096  0.15734096     0.36620
C1592       C  0.66938241  0.99227694  0.17117840     0.36620
N1593       N  0.55339256  0.75486699  0.13955710    -0.38200
N1594       N  0.68500221  0.53016500  0.15000308    -0.38200
N1595       N  0.49793203  0.82739706  0.14654711    -0.37650
N1596       N  0.72612746  0.96311295  0.26873576    -0.37650
C1597       C  0.71405211  0.86013625  0.19929548    -0.04310
C1598       C  0.74265737  0.91304156  0.19298660    -0.01430
C1599       C  0.78684888  0.93734557  0.20619492     0.03560
C1600       C  0.80954880  0.91697572  0.19402351    -0.04310
C1601       C  0.78332628  0.86604523  0.18190578    -0.01420
C1602       C  0.73669833  0.83580737  0.19211188     0.03550
C1603       C  0.73597219  0.93458490  0.15149422     0.38200
C1604       C  0.80468203  0.84546816  0.16167390     0.38190
C1605       C  0.71582557  0.78222697  0.20098830     0.36620
C1606       C  0.80287678  0.96841308  0.24560876     0.36620
N1607       N  0.69908253  0.73945159  0.20883720    -0.38200
N1608       N  0.81813802  0.49058840  0.27883401    -0.38200
N1609       N  0.82321677  0.83156186  0.14378522    -0.37650
N1610       N  0.73026738  0.95164641  0.11826055    -0.37630
C1611       C  0.58082808  0.67105846  0.46530096    -0.04310
C1612       C  0.56255554  0.69932180  0.46639533    -0.01430
C1613       C  0.58799340  0.75148762  0.45288698     0.03560
C1614       C  0.63551943  0.78013422  0.45197159    -0.04310
C1615       C  0.65158870  0.75166547  0.47127046    -0.01420
C1616       C  0.62713362  0.69949037  0.46537492     0.03550
C1617       C  0.52167998  0.67869267  0.48984138     0.38200
C1618       C  0.68751748  0.77099656  0.50432437     0.38190
C1619       C  0.65109524  0.67857724  0.45388130     0.36620
C1620       C  0.56358141  0.77285010  0.43854505     0.36620
N1621       N  0.67205575  0.66515198  0.44145501    -0.38200
N1622       N  0.54372823  0.78905982  0.92627482    -0.38200
N1623       N  0.71634724  0.78491826  0.53032806    -0.37650
N1624       N  0.99126436  0.66524687  0.01209788    -0.37650
C1625       C  0.64807159  0.86915173  0.44524414    -0.04310
C1626       C  0.62667741  0.86264296  0.48855956    -0.01430
C1627       C  0.60876212  0.89052019  0.49700620     0.03560
C1628       C  0.60177054  0.91568540  0.46025368    -0.04310
C1629       C  0.61775232  0.91677161  0.41647952    -0.01420
C1630       C  0.64774758  0.90365697  0.41250108     0.03550
C1631       C  0.62037962  0.82631724  0.02443411     0.38200
C1632       C  0.60604387  0.93492576  0.37584029     0.38190
C1633       C  0.68602599  0.93924369  0.38503927     0.36620
C1634       C  0.59935246  0.89483211  0.04384143     0.36620
N1635       N  0.71656480  0.97175179  0.36495885    -0.38200
N1636       N  0.59309905  0.90068434  0.08098805    -0.38200
N1637       N  0.59469460  0.94971714  0.34540134    -0.37650
N1638       N  0.61013322  0.79417807  0.05190059    -0.37650
C1639       C  0.71643537  0.86092181  0.44984234    -0.04310
C1640       C  0.74076258  0.84221081  0.43227439    -0.01430
C1641       C  0.78660877  0.86812119  0.43867024     0.03560
C1642       C  0.80903700  0.90952651  0.46685725    -0.04310
C1643       C  0.78518401  0.92269408  0.99155852    -0.01420
C1644       C  0.74020217  0.90128707  0.48136756     0.03550
C1645       C  0.72003111  0.79876329  0.40354754     0.38200
C1646       C  0.80736375  0.95969708  0.02706119     0.38190
C1647       C  0.72143977  0.92398148  0.00342611     0.36620
C1648       C  0.81115139  0.85297950  0.41490392     0.36620
N1649       N  0.70932957  0.94493443  0.02180084    -0.38200
N1650       N  0.83086283  0.84129621  0.39582516    -0.38200
N1651       N  0.82414434  0.48818037  0.05616124    -0.37650
N1652       N  0.70338058  0.76430449  0.38051488    -0.37650
C1653       C  0.66925394  0.83955830  0.37608863    -0.04310
C1654       C  0.70872198  0.86894128  0.34787086    -0.01430
C1655       C  0.70675786  0.85581375  0.30163407     0.03560
C1656       C  0.66831189  0.84009462  0.27458252    -0.04310
C1657       C  0.63292261  0.83015810  0.30247511    -0.01420
C1658       C  0.63049169  0.81416058  0.34878771     0.03550
C1659       C  0.75092758  0.91247534  0.36246823     0.38200
C1660       C  0.60779448  0.85031125  0.29139153     0.38190
C1661       C  0.59870372  0.76098533  0.35574293     0.36620
C1662       C  0.73495622  0.83997282  0.29286136     0.36620
N1663       N  0.57280593  0.71794862  0.36030913    -0.38200
N1664       N  0.75620938  0.82442247  0.29010345    -0.38200
N1665       N  0.58819863  0.86770504  0.28411661    -0.37650
N1666       N  0.78462083  0.94776114  0.37337334    -0.37650
C1667       C  0.78984414  0.65633271  0.25560147    -0.04310
C1668       C  0.75660458  0.60365827  0.24433963    -0.01430
C1669       C  0.71309810  0.57886744  0.25921071     0.03560
C1670       C  0.69584935  0.60585478  0.26679852    -0.04310
C1671       C  0.72534109  0.65335332  0.28511346    -0.01420
C1672       C  0.77168614  0.67372960  0.28688853     0.03550
C1673       C  0.76072042  0.57298080  0.21308566     0.38200
C1674       C  0.70798525  0.67951770  0.30258769     0.38190
C1675       C  0.79822076  0.70908410  0.32216861     0.36620
C1676       C  0.68751126  0.02674976  0.27497858     0.36620
N1677       N  0.81935747  0.73803851  0.34999831    -0.38200
N1678       N  0.66590464  0.98610135  0.29069090    -0.38200
N1679       N  0.69232732  0.69917752  0.31539677    -0.37650
N1680       N  0.76355009  0.54701690  0.18962368    -0.37650
C1681       C  0.86987842  0.74821803  0.25094101    -0.04310
C1682       C  0.85259122  0.77833909  0.25032337    -0.01430
C1683       C  0.87870293  0.82927883  0.26315456     0.03560
C1684       C  0.92481362  0.85594997  0.26636777    -0.04310
C1685       C  0.94241370  0.82736636  0.26729082    -0.01420
C1686       C  0.91727992  0.77725440  0.25314286     0.03550
C1687       C  0.81118473  0.76091440  0.22756457     0.38200
C1688       C  0.98481218  0.84746488  0.28803604     0.38190
C1689       C  0.94198812  0.76165180  0.23065613     0.36620
C1690       C  0.85816287  0.85337989  0.27717876     0.36620
N1691       N  0.96105655  0.74793532  0.21353013    -0.38200
N1692       N  0.84440587  0.87460868  0.29116460    -0.38200
N1693       N  0.51744778  0.86351790  0.30786713    -0.37650
N1694       N  0.77799267  0.74548443  0.20887380    -0.37650
C1695       C  0.86339842  0.66195366  0.25225640    -0.04310
C1696       C  0.89842348  0.67386318  0.28531667    -0.01430
C1697       C  0.92076210  0.64863324  0.28247569     0.03560
C1698       C  0.90865223  0.61372280  0.24671658    -0.04310
C1699       C  0.87091156  0.60118392  0.22110803    -0.01420
C1700       C  0.84369391  0.61261329  0.24009847     0.03550
C1701       C  0.90855387  0.70608010  0.32350711     0.38200
C1702       C  0.85478105  0.56902446  0.18213065     0.38190
C1703       C  0.81799941  0.57877592  0.27950859     0.36620
C1704       C  0.95331579  0.65656455  0.31652113     0.36620
N1705       N  0.79766491  0.55501558  0.31190183    -0.38200
N1706       N  0.47844001  0.66202760  0.34469921    -0.38200
N1707       N  0.84140641  0.04345597  0.15070762    -0.37650
N1708       N  0.91802738  0.73265610  0.35369734    -0.37650
C1709       C  0.69413446  0.59953190  0.99801425    -0.04310
C1710       C  0.71966297  0.58882951  0.47333397    -0.01430
C1711       C  0.76285837  0.60686937  0.48793691     0.03560
C1712       C  0.78855028  0.65197010  0.01395450    -0.04310
C1713       C  0.76217554  0.66662091  0.03472034    -0.01420
C1714       C  0.71560331  0.63774829  0.02992988     0.03550
C1715       C  0.70177356  0.55870550  0.43282823     0.38200
C1716       C  0.78145166  0.71146945  0.06155528     0.38190
C1717       C  0.69013798  0.65006077  0.05574849     0.36620
C1718       C  0.77369430  0.57072510  0.48358935     0.36620
N1719       N  0.67043692  0.66027282  0.07687745    -0.38200
N1720       N  0.78029108  0.54013051  0.47935763    -0.38200
N1721       N  0.79535223  0.74665366  0.08324591    -0.37650
N1722       N  0.68841388  0.53701349  0.39908888    -0.37650
C1723       C  0.86700225  0.73567358  0.49498382    -0.04310
C1724       C  0.91211148  0.76343259  0.47857436    -0.01430
C1725       C  0.93507007  0.81561458  0.46449263     0.03560
C1726       C  0.91908518  0.84396675  0.47749434    -0.04310
C1727       C  0.87443533  0.81601053  0.49084591    -0.01420
C1728       C  0.84802920  0.76333658  0.48818287     0.03550
C1729       C  0.93878860  0.74372604  0.48142238     0.38200
C1730       C  0.85545525  0.83836777  0.51292358     0.38190
C1731       C  0.80772813  0.74285380  0.46178298     0.36620
C1732       C  0.97504992  0.83962276  0.43751141     0.36620
N1733       N  0.77562717  0.72706184  0.44055625    -0.38200
N1734       N  0.50590449  0.85741429  0.41441236    -0.38200
N1735       N  0.83881714  0.85315914  0.53315604    -0.37650
N1736       N  0.96159622  0.72988484  0.48354612    -0.37650
C1737       C  0.89589602  0.59350706  0.49288592    -0.04310
C1738       C  0.87914940  0.60985557  0.45736163    -0.01430
C1739       C  0.86354964  0.63977970  0.46723121     0.03560
C1740       C  0.86228911  0.65247535  0.51375745    -0.04310
C1741       C  0.88500195  0.64064868  0.04788112    -0.01420
C1742       C  0.89744981  0.60814296  0.03837256     0.03550
C1743       C  0.87456064  0.59242588  0.41105053     0.38200
C1744       C  0.90387371  0.66698737  0.09056872     0.38190
C1745       C  0.91647886  0.59406035  0.07571730     0.36620
C1746       C  0.84653247  0.65510603  0.42916839     0.36620
N1747       N  0.93251724  0.58339946  0.10461774    -0.38200
N1748       N  0.83135362  0.66536778  0.39898097    -0.38200
N1749       N  0.92050043  0.68621749  0.12489523    -0.37650
N1750       N  0.87047277  0.57712569  0.37464441    -0.37650
C1751       C  0.84440162  0.68980269  0.07874646    -0.04310
C1752       C  0.87491299  0.73584829  0.10091879    -0.01430
C1753       C  0.87150621  0.74046600  0.14909513     0.03560
C1754       C  0.84039095  0.69709038  0.17890460    -0.04310
C1755       C  0.80571186  0.65858765  0.15290231    -0.01420
C1756       C  0.81389657  0.64889657  0.10929479     0.03550
C1757       C  0.91508252  0.77684919  0.07852092     0.38200
C1758       C  0.76345497  0.65173440  0.15562535     0.38190
C1759       C  0.78700334  0.59713595  0.09562616     0.36620
C1760       C  0.89339990  0.79273078  0.16086102     0.36620
N1761       N  0.76529436  0.55535500  0.08568925    -0.38200
N1762       N  0.91152961  0.83573071  0.16498400    -0.38200
N1763       N  0.72975980  0.64641766  0.15730960    -0.37650
N1764       N  0.94870493  0.81126039  0.06495563    -0.37650
C1765       C  0.84115211  0.68245037  0.52455023    -0.01460
C1766       C  0.84081801  0.69123289  0.73528729    -0.01460
C1767       C  0.66740246  0.83776643  0.93183170    -0.01460
C1768       C  0.66450222  0.83502621  0.71940824    -0.01460
C1769       C  0.91478919  0.56405976  0.98337740     0.77470
Tb1770     Tb  0.55301032  0.50756335  0.97833385     1.80740
O1771       O  0.92523605  0.55871185  0.94401890    -0.50540
O1772       O  0.88139333  0.96011439  0.93214590    -0.57990
C1773       C  0.55243517  0.61382137  0.96723096     0.93290
O1774       O  0.62668313  0.55798754  0.45231860    -0.57520
Tb1775     Tb  0.94917734  0.50713641  0.97132336     1.78060
O1776       O  0.56927866  0.94921670  0.00560930    -0.58020
O1777       O  0.93055946  0.92464933  0.96767737    -0.76820
O1778       O  0.51126430  0.59060542  0.95984906    -0.76140
O1779       O  0.97278869  0.50988829  0.54994178    -0.61410
C1780       C  0.94811898  0.90100374  0.97693750     0.92880
O1781       O  0.53221705  0.51057304  0.89912545    -0.73360
C1782       C  0.58193479  0.44474900  0.96726372     0.76320
C1783       C  0.85774101  0.94123610  0.96812853     0.77300
O1784       O  0.92308986  0.54248589  0.51522981    -0.58610
O1785       O  0.87961114  0.95343688  0.50526155    -0.50550
O1786       O  0.53162790  0.50663911  0.55516540    -0.76620
O1787       O  0.97149932  0.51049380  0.89451585    -0.60610
C1788       C  0.00240884  0.51090135  0.87537652     0.91100
C1789       C  0.00214833  0.50917178  0.57396395     0.92330
C1790       C  0.64517259  0.56954392  0.49142905     0.76670
O1791       O  0.57783422  0.46971598  0.93499808    -0.49940
O1792       O  0.61775155  0.05190344  0.52425815    -0.51090
O1793       O  0.98905753  0.92381563  0.98606895    -0.63940
O1794       O  0.57039406  0.59037025  0.97625631    -0.65080
C1795       C  0.92809656  0.58411828  0.73941709     0.77470
Tb1796     Tb  0.55801463  0.51272666  0.72647710     1.80740
O1797       O  0.93105231  0.57123733  0.70010804    -0.50540
O1798       O  0.88804469  0.96156614  0.67279637    -0.57990
C1799       C  0.55760457  0.61347858  0.69916448     0.93290
O1800       O  0.63466163  0.55841362  0.71517568    -0.57520
Tb1801     Tb  0.95010503  0.51417375  0.72253738     1.78060
O1802       O  0.59248394  0.97016459  0.73883545    -0.58020
O1803       O  0.93587643  0.93504507  0.74421611    -0.76820
O1804       O  0.51773971  0.59199176  0.71141686    -0.76140
O1805       O  0.97252332  0.51107118  0.80030322    -0.61410
C1806       C  0.95419868  0.91261954  0.75621506     0.92880
O1807       O  0.53258098  0.51155378  0.64927591    -0.73360
C1808       C  0.58005804  0.44462092  0.70326041     0.76320
C1809       C  0.85853372  0.94678928  0.70287671     0.77300
O1810       O  0.93805469  0.56377714  0.77105465    -0.58610
O1811       O  0.87494310  0.96448565  0.74170858    -0.50550
O1812       O  0.53407777  0.51234607  0.80279546    -0.76620
O1813       O  0.97248335  0.51318436  0.64583564    -0.60610
C1814       C  0.00224641  0.51137002  0.62627042     0.91100
C1815       C  0.00322321  0.51159912  0.82290927     0.92330
C1816       C  0.64836793  0.58084613  0.75265671     0.76670
O1817       O  0.55417299  0.45058908  0.67913966    -0.49940
O1818       O  0.61687239  0.07189377  0.77738776    -0.51090
O1819       O  0.99598153  0.93531925  0.75601956    -0.63940
O1820       O  0.57446481  0.58946504  0.69178276    -0.65080
C1821       C  0.63301070  0.77657938  0.70911736    -0.04310
C1822       C  0.63264963  0.75603242  0.66615606    -0.01430
C1823       C  0.60709547  0.70257879  0.66134748     0.03560
C1824       C  0.58621932  0.66963923  0.70052539    -0.04310
C1825       C  0.58708445  0.69050682  0.74214762    -0.01420
C1826       C  0.60082857  0.74074520  0.74173207     0.03550
C1827       C  0.65975952  0.78942634  0.62802031     0.38200
C1828       C  0.56697112  0.65825879  0.78354362     0.38190
C1829       C  0.56581779  0.74553545  0.75419667     0.36620
C1830       C  0.60046793  0.68173543  0.61640452     0.36620
N1831       N  0.53648529  0.74743979  0.76309160    -0.38200
N1832       N  0.59386244  0.66472641  0.58040217    -0.38200
N1833       N  0.55073065  0.63118329  0.81573920    -0.37650
N1834       N  0.68399392  0.81762449  0.59964288    -0.37650
C1835       C  0.64275518  0.86439363  0.69960698    -0.04310
C1836       C  0.66403161  0.91707653  0.70784283    -0.01430
C1837       C  0.64476331  0.94261636  0.69359745     0.03560
C1838       C  0.59968588  0.91670937  0.69067911    -0.04310
C1839       C  0.57668462  0.86615705  0.67928044    -0.01420
C1840       C  0.59889711  0.84118920  0.67901885     0.03550
C1841       C  0.69903658  0.94285432  0.74097720     0.38200
C1842       C  0.53245472  0.84324151  0.66204001     0.38190
C1843       C  0.57485877  0.79308119  0.65734289     0.36620
C1844       C  0.66938136  0.99227012  0.67118093     0.36620
N1845       N  0.55338784  0.75485590  0.63956144    -0.38200
N1846       N  0.68500134  0.53015928  0.65000744    -0.38200
N1847       N  0.49793205  0.82738736  0.64653986    -0.37650
N1848       N  0.72612593  0.96310589  0.76873529    -0.37650
C1849       C  0.71405263  0.86013057  0.69929149    -0.04310
C1850       C  0.74265772  0.91303622  0.69298737    -0.01430
C1851       C  0.78684833  0.93733930  0.70619832     0.03560
C1852       C  0.80954971  0.91697115  0.69402722    -0.04310
C1853       C  0.78332870  0.86604260  0.68190360    -0.01420
C1854       C  0.73669969  0.83580313  0.69210488     0.03550
C1855       C  0.73597502  0.93458398  0.65149652     0.38200
C1856       C  0.80468715  0.84546820  0.66167277     0.38190
C1857       C  0.71582620  0.78222148  0.70097260     0.36620
C1858       C  0.80287605  0.96841054  0.74560942     0.36620
N1859       N  0.69908243  0.73944483  0.70881405    -0.38200
N1860       N  0.81813752  0.49058938  0.77883283    -0.38200
N1861       N  0.82322446  0.83156404  0.64378602    -0.37650
N1862       N  0.73027297  0.95164973  0.61826410    -0.37630
C1863       C  0.58083477  0.67105139  0.96530142    -0.04310
C1864       C  0.56256174  0.69931442  0.96639247    -0.01430
C1865       C  0.58799957  0.75147966  0.95288251     0.03560
C1866       C  0.63552562  0.78012652  0.95196916    -0.04310
C1867       C  0.65159485  0.75165900  0.97127137    -0.01420
C1868       C  0.62714037  0.69948364  0.96537751     0.03550
C1869       C  0.52168547  0.67868590  0.98983675     0.38200
C1870       C  0.68752270  0.77099209  0.00432666     0.38190
C1871       C  0.65110267  0.67857109  0.95388502     0.36620
C1872       C  0.56358782  0.77284174  0.93853780     0.36620
N1873       N  0.67206362  0.66514630  0.94145902    -0.38200
N1874       N  0.54372154  0.78906844  0.42628420    -0.38200
N1875       N  0.71635149  0.78491582  0.03033202    -0.37650
N1876       N  0.99125953  0.66525293  0.51210397    -0.37650
C1877       C  0.64807691  0.86914286  0.94524222    -0.04310
C1878       C  0.62668205  0.86263278  0.98855760    -0.01430
C1879       C  0.60876676  0.89050992  0.99700513     0.03560
C1880       C  0.60177617  0.91567694  0.96025353    -0.04310
C1881       C  0.61775846  0.91676421  0.91647928    -0.01420
C1882       C  0.64775319  0.90364875  0.91249994     0.03550
C1883       C  0.62037545  0.82632855  0.52443698     0.38200
C1884       C  0.60604969  0.93491863  0.87584070     0.38190
C1885       C  0.68603116  0.93923396  0.88503702     0.36620
C1886       C  0.59934951  0.89484511  0.54384244     0.36620
N1887       N  0.71657028  0.97174087  0.86495617    -0.38200
N1888       N  0.59309747  0.90069993  0.58098869    -0.38200
N1889       N  0.59469947  0.94970999  0.84540273    -0.37650
N1890       N  0.61012910  0.79419069  0.55190488    -0.37650
C1891       C  0.71644148  0.86091427  0.94983964    -0.04310
C1892       C  0.74076863  0.84220264  0.93227309    -0.01430
C1893       C  0.78661485  0.86811324  0.93866920     0.03560
C1894       C  0.80904286  0.90951883  0.96685589    -0.04310
C1895       C  0.78517835  0.92270157  0.49156059    -0.01420
C1896       C  0.74020803  0.90127981  0.98136460     0.03550
C1897       C  0.72003720  0.79875390  0.90354792     0.38200
C1898       C  0.80735861  0.95970486  0.52706291     0.38190
C1899       C  0.72143422  0.92398869  0.50342989     0.36620
C1900       C  0.81115785  0.85297175  0.91490335     0.36620
N1901       N  0.70932467  0.94494188  0.52180548    -0.38200
N1902       N  0.83086986  0.84128900  0.89582492    -0.38200
N1903       N  0.82413949  0.48818837  0.55616267    -0.37650
N1904       N  0.70338738  0.76429363  0.88051717    -0.37650
C1905       C  0.66925916  0.83954921  0.87608601    -0.04310
C1906       C  0.70872645  0.86892955  0.84786687    -0.01430
C1907       C  0.70675979  0.85580151  0.80162965     0.03560
C1908       C  0.66831378  0.84008645  0.77457976    -0.04310
C1909       C  0.63292573  0.83015033  0.80247449    -0.01420
C1910       C  0.63049607  0.81415152  0.84878661     0.03550
C1911       C  0.75093300  0.91246294  0.86246258     0.38200
C1912       C  0.60779405  0.85029908  0.79139144     0.38190
C1913       C  0.59871334  0.76097461  0.85573952     0.36620
C1914       C  0.73495107  0.83995075  0.79285636     0.36620
N1915       N  0.57281982  0.71793693  0.86030593    -0.38200
N1916       N  0.75619800  0.82439243  0.79009708    -0.38200
N1917       N  0.58819491  0.86768881  0.78411641    -0.37650
N1918       N  0.78462700  0.94774816  0.87336685    -0.37650
C1919       C  0.78984244  0.65632988  0.75560395    -0.04310
C1920       C  0.75660414  0.60365542  0.74434127    -0.01430
C1921       C  0.71309739  0.57886317  0.75921180     0.03560
C1922       C  0.69584688  0.60584923  0.76679745    -0.04310
C1923       C  0.72533728  0.65334882  0.78511116    -0.01420
C1924       C  0.77168240  0.67372570  0.78688923     0.03550
C1925       C  0.76072128  0.57297961  0.71308634     0.38200
C1926       C  0.70798037  0.67951513  0.80257816     0.38190
C1927       C  0.79821480  0.70907796  0.82217147     0.36620
C1928       C  0.68751131  0.02674520  0.77497850     0.36620
N1929       N  0.81935065  0.73803040  0.85000282    -0.38200
N1930       N  0.66590540  0.98609620  0.79068953    -0.38200
N1931       N  0.69232103  0.69917625  0.81537994    -0.37650
N1932       N  0.76355151  0.54701657  0.68962374    -0.37650
C1933       C  0.86987631  0.74821627  0.75094642    -0.04310
C1934       C  0.85258869  0.77833687  0.75033004    -0.01430
C1935       C  0.87869968  0.82927630  0.76316236     0.03560
C1936       C  0.92481050  0.85594790  0.76637505    -0.04310
C1937       C  0.94241108  0.82736472  0.76729718    -0.01420
C1938       C  0.91727785  0.77725326  0.75314799     0.03550
C1939       C  0.81118348  0.76091323  0.72756914     0.38200
C1940       C  0.98481283  0.84746652  0.78803549     0.38190
C1941       C  0.94198661  0.76165207  0.73065995     0.36620
C1942       C  0.85815866  0.85337778  0.77718293     0.36620
N1943       N  0.96105588  0.74793671  0.71353388    -0.38200
N1944       N  0.84439973  0.87460637  0.79116460    -0.38200
N1945       N  0.51745271  0.86352432  0.80785916    -0.37650
N1946       N  0.77799272  0.74548437  0.70887604    -0.37650
C1947       C  0.86339808  0.66195305  0.75225963    -0.04310
C1948       C  0.89842364  0.67386298  0.78531967    -0.01430
C1949       C  0.92076297  0.64863383  0.78247840     0.03560
C1950       C  0.90865261  0.61372245  0.74672009    -0.04310
C1951       C  0.87091155  0.60118301  0.72111193    -0.01420
C1952       C  0.84369392  0.61261264  0.74010215     0.03550
C1953       C  0.90855471  0.70608033  0.82350996     0.38200
C1954       C  0.85478054  0.56902266  0.68213523     0.38190
C1955       C  0.81799908  0.57877535  0.77951214     0.36620
C1956       C  0.95331972  0.65656902  0.81652158     0.36620
N1957       N  0.79766430  0.55501467  0.81190513    -0.38200
N1958       N  0.47844768  0.66203673  0.84469692    -0.38200
N1959       N  0.84140501  0.04345309  0.65071289    -0.37650
N1960       N  0.91802914  0.73265697  0.85369985    -0.37650
C1961       C  0.69412875  0.59953933  0.49801488    -0.04310
C1962       C  0.71966868  0.58882171  0.97333397    -0.01430
C1963       C  0.76286429  0.60686265  0.98793667     0.03560
C1964       C  0.78854441  0.65197566  0.51395627    -0.04310
C1965       C  0.76216988  0.66662637  0.53472262    -0.01420
C1966       C  0.71559766  0.63775444  0.52993177     0.03550
C1967       C  0.70177918  0.55869628  0.93282916     0.38200
C1968       C  0.78144631  0.71147440  0.56155814     0.38190
C1969       C  0.69013255  0.65006617  0.55575177     0.36620
C1970       C  0.77370051  0.57071838  0.98359099     0.36620
N1971       N  0.67043189  0.66027765  0.57688222    -0.38200
N1972       N  0.78029789  0.54012405  0.97936096    -0.38200
N1973       N  0.79534717  0.74665835  0.58324916    -0.37650
N1974       N  0.68841981  0.53700321  0.89909036    -0.37650
C1975       C  0.86700823  0.73566815  0.99498222    -0.04310
C1976       C  0.91211724  0.76342677  0.97857197    -0.01430
C1977       C  0.93507645  0.81560924  0.96449184     0.03560
C1978       C  0.91909214  0.84396146  0.97749514    -0.04310
C1979       C  0.87444255  0.81600572  0.99084695    -0.01420
C1980       C  0.84803588  0.76333199  0.98818278     0.03550
C1981       C  0.93879363  0.74371921  0.98141708     0.38200
C1982       C  0.85546326  0.83836337  0.01292549     0.38190
C1983       C  0.80773446  0.74285041  0.96178384     0.36620
C1984       C  0.97505601  0.83961763  0.93751001     0.36620
N1985       N  0.77563281  0.72705930  0.94055862    -0.38200
N1986       N  0.50591016  0.85740868  0.91441024    -0.38200
N1987       N  0.83882580  0.85315503  0.03315869    -0.37650
N1988       N  0.96160091  0.72987751  0.98353819    -0.37650
C1989       C  0.89590106  0.59350091  0.99288393    -0.04310
C1990       C  0.87915440  0.60984942  0.95735969    -0.01430
C1991       C  0.86355472  0.63977366  0.96722942     0.03560
C1992       C  0.86229474  0.65246974  0.01375577    -0.04310
C1993       C  0.88499658  0.64065459  0.54788284    -0.01420
C1994       C  0.89744416  0.60814859  0.53837459     0.03550
C1995       C  0.87456540  0.59241945  0.91104863     0.38200
C1996       C  0.90386980  0.66699468  0.59056958     0.38190
C1997       C  0.91647243  0.59406541  0.57571973     0.36620
C1998       C  0.84653651  0.65509917  0.92916687     0.36620
N1999       N  0.93251030  0.58340436  0.60462067    -0.38200
N2000       N  0.83135668  0.66536040  0.89898004    -0.38200
N2001       N  0.92049766  0.68622574  0.62489542    -0.37650
N2002       N  0.87047731  0.57711907  0.87464254    -0.37650
C2003       C  0.84439607  0.68980753  0.57874815    -0.04310
C2004       C  0.87490705  0.73585289  0.60092127    -0.01430
C2005       C  0.87150256  0.74046798  0.64909894     0.03560
C2006       C  0.84038910  0.69709063  0.67890807    -0.04310
C2007       C  0.80570909  0.65858898  0.65290528    -0.01420
C2008       C  0.81389257  0.64889997  0.60929622     0.03550
C2009       C  0.91507400  0.77685731  0.57852210     0.38200
C2010       C  0.76345219  0.65173546  0.65562994     0.38190
C2011       C  0.78699940  0.59713974  0.59562621     0.36620
C2012       C  0.89339904  0.79273219  0.66086827     0.36620
N2013       N  0.76529060  0.55535906  0.58568839    -0.38200
N2014       N  0.91153125  0.83573219  0.66499312    -0.38200
N2015       N  0.72975676  0.64641801  0.65731471    -0.37650
N2016       N  0.94869463  0.81127224  0.56495726    -0.37650
loop_ 
_geom_bond_atom_site_label_1 
_geom_bond_atom_site_label_2 
_geom_bond_distance 
_geom_bond_site_symmetry_2 
_ccdc_geom_bond_type 
C1          C200   1.628       .  S
C1          C239   1.589       .  S
C1          C463   1.617   1_554  S
C1          C480   1.598       .  S
C2          C155   1.654       .  S
C2          C169   1.595       .  S
C2          C183   1.629       .  S
C2          C242   1.632       .  S
C3          C102   1.616       .  S
C3          C113   1.604       .  S
C3          C127   1.596       .  S
C3          C141   1.612       .  S
C4           C57   1.592       .  S
C4           C71   1.629       .  S
C4           C85   1.634       .  S
C4          C144   1.606       .  S
C5            O7   1.265       .  A
C5          O272   1.258       .  A
C5          C225   1.504       .  S
Tb6          O17   2.407       .  S
Tb6          O30   2.363       .  S
Tb6          O27   2.329   1_545  S
Tb6         O784   2.372       .  S
Tb6        O1541   2.369   1_445  S
Tb6         O516   2.373   1_545  S
Tb6         O274   2.375       .  S
Tb6         O262   2.359       .  S
O7          Tb11   2.381       .  S
O8           C19   1.265       .  A
O8         Tb515   2.350       .  S
C9           O14   1.271       .  A
C9           O30   1.273       .  A
C9           C99   1.515       .  S
O10          C26   1.261       .  A
O10        Tb258   2.359       .  S
Tb11         O23   2.370       .  S
Tb11        O512   2.350   1_545  S
Tb11        O267   2.397       .  S
Tb11        O272   2.309       .  S
Tb11       O1022   2.350       .  S
Tb11        O777   2.337   1_545  S
Tb11        O517   2.347   1_545  S
O12         C522   1.264       .  A
O12        Tb510   2.373       .  S
O13          C16   1.267       .  A
O13        Tb515   2.347       .  S
O14       Tb1019   2.350   1_455  S
O15          C25   1.280       .  A
O15        Tb263   2.397   1_554  S
C16          O29   1.274       .  A
C16         C214   1.511       .  S
O17        C1032   1.284       .  A
C18          O27   1.262       .  A
C18         O516   1.264       .  A
C18         C620   1.508       .  S
C19         O273   1.260       .  A
C19         C130   1.477       .  S
O20         C257   1.258   1_554  A
O20        Tb263   2.309   1_554  S
O21         C271   1.260   1_554  A
O21        Tb767   2.337   1_554  S
O22        C1033   1.278       .  A
O22        Tb258   2.375   1_554  S
O23          C24   1.278       .  A
C24        O1025   1.284       .  A
C24          C51   1.517       .  S
C25        O1030   1.278       .  A
C25          C50   1.518       .  S
C26         O532   1.263   1_556  A
C26         C197   1.498       .  S
O28         C530   1.263   1_554  A
O28        Tb762   2.372   1_554  S
O29       Tb1518   2.369       .  S
C31          O46   1.262       .  A
C31          O33   1.260       .  A
C31         C186   1.513       .  S
Tb32         O48   2.401       .  S
Tb32         O43   2.388       .  S
Tb32         O36   2.353       .  S
Tb32         O56   2.358       .  S
Tb32         O53   2.424   1_545  S
Tb32        O558   2.429       .  S
Tb32       O1567   2.362   1_445  S
Tb32        O542   2.356   1_545  S
O33         Tb37   2.372       .  S
O34          C45   1.263       .  A
O34        Tb541   2.412       .  S
C35          O40   1.271       .  A
C35          O56   1.270       .  A
C35          C60   1.491       .  S
O36          C52   1.260       .  A
Tb37         O41   2.388       .  S
Tb37         O46   2.414       .  S
Tb37         O49   2.400       .  S
Tb37        O538   2.412   1_545  S
Tb37       O1048   2.335       .  S
Tb37        O551   2.347   1_545  S
Tb37        O543   2.346   1_545  S
O38         C548   1.257       .  A
O38        Tb536   2.356       .  S
O39          C42   1.272       .  A
O39        Tb541   2.346       .  S
O40       Tb1045   2.335   1_455  S
O41          C51   1.283       .  A
C42          O55   1.276       .  A
C42         C172   1.518       .  S
O43        C1058   1.282       .  A
C44          O53   1.261       .  A
C44         O542   1.257       .  A
C44         C578   1.506       .  S
C45          O47   1.259       .  A
C45          C88   1.508       .  S
O47        Tb541   2.347       .  S
O48        C1059   1.284       .  A
O49          C50   1.284       .  A
C50        O1051   1.282       .  A
C51        O1056   1.284       .  A
C52         O558   1.263       .  A
C52         C158   1.506       .  S
O54         C556   1.263       .  A
O54        Tb536   2.429       .  S
O55       Tb1544   2.362       .  S
C57          C58   1.436       .  A
C57          C62   1.423       .  A
C58          C59   1.430       .  A
C58          C63   1.446       .  S
C59          C60   1.413       .  A
C59          C66   1.445       .  S
C60          C61   1.402       .  A
C61          C62   1.395       .  A
C61          C64   1.452       .  S
C62          C65   1.446       .  S
C63          N70   1.157       .  T
C64          N69   1.157       .  T
C65          N67   1.157       .  T
C66          N68   1.157       .  T
C71          C72   1.439       .  A
C71          C76   1.463       .  A
C72          C73   1.403       .  A
C72          C77   1.436       .  S
C73          C74   1.374       .  A
C73          C80   1.441       .  S
C74         C548   1.506       .  S
C74          C75   1.396       .  A
C75          C76   1.442       .  A
C75          C78   1.440       .  S
C76          C79   1.445       .  S
C77          N84   1.154       .  T
C78          N83   1.154   1_455  T
C79          N81   1.158       .  T
C80         N586   1.157       .  T
N82         C584   1.157   1_545  T
C85          C86   1.408       .  A
C85          C90   1.462       .  A
C86          C87   1.399       .  A
C86          C91   1.439       .  S
C87          C88   1.390       .  A
C87          C94   1.435       .  S
C88          C89   1.409       .  A
C89          C90   1.445       .  A
C89          C92   1.441       .  S
C90          C93   1.447       .  S
C91          N98   1.155       .  T
C92          N97   1.156       .  T
C93          N95   1.158       .  T
C94         N600   1.154       .  T
N96         C598   1.154       .  T
C99         C100   1.413       .  A
C99         C104   1.406       .  A
C100        C101   1.420       .  A
C100        C105   1.432       .  S
C101        C102   1.444       .  A
C101        C108   1.454       .  S
C102        C103   1.433       .  A
C103        C104   1.402       .  A
C103        C106   1.450       .  S
C104        C107   1.440       .  S
C105       N1372   1.151   1_455  T
C106        N111   1.158       .  T
C107        N109   1.155       .  T
C108        N362   1.157       .  T
N110        C360   1.157       .  T
N112       C1365   1.151   1_554  T
C113        C114   1.443       .  A
C113        C118   1.427       .  A
C114        C115   1.422       .  A
C114        C371   1.441       .  S
C115        C116   1.409       .  A
C115        C374   1.443       .  S
C116        C522   1.508       .  S
C116        C117   1.404       .  A
C117        C118   1.403       .  A
C117        C120   1.447       .  S
C118        C121   1.438       .  S
C119        C366   1.441   1_554  S
C119        N126   1.154       .  T
C120        N125   1.157       .  T
C121        N123   1.155       .  T
C122        C367   1.443   1_554  S
C122        N124   1.154       .  T
C127        C128   1.454       .  A
C127        C132   1.439       .  A
C128        C129   1.408       .  A
C128        C133   1.450       .  S
C129        C130   1.396       .  A
C129        C136   1.455       .  S
C130        C383   1.403       .  A
C131        C382   1.403       .  A
C131        C384   1.416       .  A
C131        C134   1.454   1_556  S
C132        C383   1.416       .  A
C132        C387   1.444       .  S
C133        N140   1.154       .  T
C134        N643   1.157       .  T
C135        C384   1.444   1_554  S
C135        N137   1.157       .  T
C136        N138   1.157       .  T
N139        C638   1.157       .  T
C141        C142   1.451       .  A
C141        C146   1.415       .  A
C142        C143   1.412       .  A
C142        C147   1.451       .  S
C143        C144   1.427       .  A
C143        C150   1.432       .  S
C144        C145   1.423       .  A
C145        C146   1.396       .  A
C145        C148   1.426       .  S
C146        C149   1.429       .  S
C147        N154   1.158       .  T
C148        N153   1.151       .  T
C149        N151   1.154       .  T
C150        N152   1.154       .  T
C155        C156   1.468       .  A
C155        C160   1.452       .  A
C156        C157   1.395       .  A
C156        C161   1.449       .  S
C157        C158   1.370       .  A
C157        C668   1.435       .  S
C158        C159   1.401       .  A
C159        C160   1.442       .  A
C159        C162   1.437       .  S
C160        C163   1.445       .  S
C161        N168   1.158       .  T
C162        N167   1.154       .  T
C163        N165   1.157       .  T
C164        C661   1.435       .  S
C164        N166   1.152       .  T
C169        C170   1.435       .  A
C169        C174   1.440       .  A
C170        C171   1.416       .  A
C170        C175   1.443       .  S
C171        C172   1.405       .  A
C171        C178   1.440       .  S
C172        C173   1.398       .  A
C173        C174   1.406       .  A
C173        C176   1.434       .  S
C174        C177   1.452       .  S
C175        N182   1.155       .  T
C176       N1189   1.151       .  T
C177        N179   1.157       .  T
C178        N180   1.154       .  T
N181       C1184   1.151   1_455  T
C183        C184   1.459       .  A
C183        C188   1.382       .  A
C184        C185   1.459       .  A
C184        C189   1.448       .  S
C185        C186   1.436       .  A
C185        C192   1.443       .  S
C186        C187   1.406       .  A
C187        C188   1.389       .  A
C187        C190   1.443       .  S
C188        C191   1.464       .  S
C189        N196   1.157       .  T
C190        N699   1.157       .  T
C191        N193   1.157       .  T
C192       N1202   1.156       .  T
N194       C1200   1.156       .  T
N195        C694   1.157       .  T
C197        C202   1.401   1_556  A
C197        C450   1.400       .  A
C198        C199   1.409       .  A
C198        C449   1.400       .  A
C198        C203   1.447       .  S
C199        C452   1.443       .  A
C199        C206   1.445       .  S
C200        C201   1.459       .  A
C200        C451   1.443   1_554  A
C201        C202   1.420       .  A
C201        C204   1.454       .  S
C202        C205   1.451       .  S
C203        N210   1.155       .  T
C204        N209   1.157       .  T
C205        N207   1.156       .  T
C206        N208   1.157       .  T
C211        C253   1.617       .  S
C211        C212   1.451       .  A
C211        C216   1.419       .  A
C212        C213   1.428       .  A
C212        C217   1.445       .  S
C213        C214   1.413       .  A
C213        C220   1.446       .  S
C214        C215   1.410       .  A
C215        C216   1.401       .  A
C215        C218   1.441       .  S
C216        C219   1.447       .  S
C217        N224   1.156       .  T
C218        N223   1.156       .  T
C219        N221   1.158       .  T
C220       N1230   1.155       .  T
N222       C1228   1.155   1_455  T
C225        C226   1.410       .  A
C225        C482   1.410       .  A
C226        C227   1.422       .  A
C226        C231   1.448       .  S
C227        C228   1.438       .  A
C227        C234   1.450       .  S
C228        C253   1.598       .  S
C228        C481   1.447       .  A
C229        C230   1.406       .  A
C229        C480   1.447       .  A
C229        C232   1.454       .  S
C230        C477   1.410   1_554  A
C230        C233   1.459       .  S
C231        N238   1.156       .  T
C232        N237   1.158       .  T
C233        N235   1.157       .  T
C234        N236   1.156       .  T
C239        C240   1.426       .  A
C239        C244   1.425       .  A
C240        C241   1.426       .  A
C240        C245   1.449       .  S
C241        C242   1.456       .  A
C241        C248   1.450       .  S
C242        C243   1.405       .  A
C243        C244   1.398       .  A
C243        C246   1.450       .  S
C244        C247   1.444       .  S
C245        N252   1.157       .  T
C246        N251   1.158       .  T
C247        N249   1.156       .  T
C248        N250   1.158       .  T
C253        C452   1.628       .  S
C253        C491   1.589       .  S
C254        C407   1.654       .  S
C254        C421   1.595       .  S
C254        C435   1.629       .  S
C254        C494   1.632       .  S
C255        C354   1.616       .  S
C255        C365   1.604       .  S
C255        C379   1.596       .  S
C255        C393   1.612       .  S
C256        C309   1.592       .  S
C256        C323   1.629       .  S
C256        C337   1.634       .  S
C256        C396   1.606       .  S
C257        O259   1.265       .  A
C257        C477   1.504       .  S
Tb258       O532   2.372   1_556  S
Tb258      O1793   2.369   1_445  S
Tb258       O768   2.373   1_546  S
Tb258       O269   2.407       .  S
Tb258       O282   2.363       .  S
Tb258       O279   2.329   1_545  S
O259       Tb263   2.381       .  S
O260        C271   1.265       .  A
O260       Tb767   2.350       .  S
C261        O266   1.271       .  A
C261        O282   1.273       .  A
C261        C351   1.515       .  S
O262        C278   1.261       .  A
Tb263       O764   2.350   1_545  S
Tb263      O1274   2.350       .  S
Tb263       O525   2.337   1_546  S
Tb263       O275   2.370       .  S
Tb263       O769   2.347   1_545  S
O264        C774   1.264   1_554  A
O264       Tb762   2.373   1_554  S
O265        C268   1.267       .  A
O265       Tb767   2.347       .  S
O266      Tb1271   2.350   1_455  S
O267        C277   1.280       .  A
C268        O281   1.274       .  A
C268        C466   1.511       .  S
O269       C1284   1.284       .  A
C270        O768   1.264   1_556  A
C270        O279   1.262       .  A
C270        C872   1.508       .  S
C271        C382   1.477       .  S
O273       Tb515   2.337       .  S
O274       C1285   1.278       .  A
O275        C276   1.278       .  A
C276       O1277   1.284       .  A
C276        C303   1.517       .  S
C277       O1282   1.278       .  A
C277        C302   1.518       .  S
C278        O784   1.263       .  A
C278        C449   1.498       .  S
O280        C782   1.263       .  A
O280       Tb510   2.372       .  S
O281      Tb1770   2.369       .  S
C283        O298   1.262       .  A
C283        O285   1.260       .  A
C283        C438   1.513       .  S
Tb284       O810   2.429       .  S
Tb284      O1819   2.362   1_445  S
Tb284       O794   2.356   1_545  S
Tb284       O300   2.401       .  S
Tb284       O295   2.388       .  S
Tb284       O288   2.353       .  S
Tb284       O308   2.358       .  S
Tb284       O305   2.424   1_545  S
O285       Tb289   2.372       .  S
O286        C297   1.263       .  A
O286       Tb793   2.412       .  S
C287        O292   1.271       .  A
C287        O308   1.270       .  A
C287        C312   1.491       .  S
O288        C304   1.260       .  A
Tb289       O790   2.412   1_545  S
Tb289       O293   2.388       .  S
Tb289       O298   2.414       .  S
Tb289      O1300   2.335       .  S
Tb289       O803   2.347   1_545  S
Tb289       O301   2.400       .  S
Tb289       O795   2.346   1_545  S
O290        C800   1.257       .  A
O290       Tb788   2.356       .  S
O291        C294   1.272       .  A
O291       Tb793   2.346       .  S
O292      Tb1297   2.335   1_455  S
O293        C303   1.283       .  A
C294        O307   1.276       .  A
C294        C424   1.518       .  S
O295       C1310   1.282       .  A
C296        O794   1.257       .  A
C296        O305   1.261       .  A
C296        C830   1.506       .  S
C297        O299   1.259       .  A
C297        C340   1.508       .  S
O299       Tb793   2.347       .  S
O300       C1311   1.284       .  A
O301        C302   1.284       .  A
C302       O1303   1.282       .  A
C303       O1308   1.284       .  A
C304        O810   1.263       .  A
C304        C410   1.506       .  S
O306        C808   1.263       .  A
O306       Tb788   2.429       .  S
O307      Tb1796   2.362       .  S
C309        C310   1.436       .  A
C309        C314   1.423       .  A
C310        C311   1.430       .  A
C310        C315   1.446       .  S
C311        C312   1.413       .  A
C311        C318   1.445       .  S
C312        C313   1.402       .  A
C313        C314   1.395       .  A
C313        C316   1.452       .  S
C314        C317   1.446       .  S
C315        N322   1.157       .  T
C316        N321   1.157       .  T
C317        N319   1.157       .  T
C318        N320   1.157       .  T
C323        C324   1.439       .  A
C323        C328   1.463       .  A
C324        C325   1.403       .  A
C324        C329   1.436       .  S
C325        C326   1.374       .  A
C325        C332   1.441       .  S
C326        C800   1.506       .  S
C326        C327   1.396       .  A
C327        C328   1.442       .  A
C327        C330   1.440       .  S
C328        C331   1.445       .  S
C329        N336   1.154       .  T
C330        N335   1.154   1_455  T
C331        N333   1.158       .  T
C332        N838   1.157       .  T
N334        C836   1.157   1_545  T
C337        C338   1.408       .  A
C337        C342   1.462       .  A
C338        C339   1.399       .  A
C338        C343   1.439       .  S
C339        C340   1.390       .  A
C339        C346   1.435       .  S
C340        C341   1.409       .  A
C341        C342   1.445       .  A
C341        C344   1.441       .  S
C342        C345   1.447       .  S
C343        N350   1.155       .  T
C344        N349   1.156       .  T
C345        N347   1.158       .  T
C346        N852   1.154       .  T
N348        C850   1.154       .  T
C351        C352   1.413       .  A
C351        C356   1.406       .  A
C352        C353   1.420       .  A
C352        C357   1.432       .  S
C353        C354   1.444       .  A
C353        C360   1.454       .  S
C354        C355   1.433       .  A
C355        C356   1.402       .  A
C355        C358   1.450   1_556  S
C356        C359   1.440       .  S
C357       N1120   1.151   1_456  T
C358        N363   1.158       .  T
C359        N361   1.155       .  T
N364       C1113   1.151       .  T
C365        C366   1.443       .  A
C365        C370   1.427       .  A
C366        C367   1.422       .  A
C367        C368   1.409       .  A
C368        C774   1.508       .  S
C368        C369   1.404       .  A
C369        C370   1.403       .  A
C369        C372   1.447       .  S
C370        C373   1.438       .  S
C371        N378   1.154       .  T
C372        N377   1.157       .  T
C373        N375   1.155       .  T
C374        N376   1.154       .  T
C379        C380   1.454       .  A
C379        C384   1.439       .  A
C380        C381   1.408       .  A
C380        C385   1.450       .  S
C381        C382   1.396       .  A
C381        C388   1.455       .  S
C383        C386   1.454       .  S
C385        N392   1.154       .  T
C386        N895   1.157       .  T
C387        N389   1.157       .  T
C388        N390   1.157       .  T
N391        C890   1.157       .  T
C393        C394   1.451       .  A
C393        C398   1.415       .  A
C394        C395   1.412       .  A
C394        C399   1.451       .  S
C395        C396   1.427       .  A
C395        C402   1.432       .  S
C396        C397   1.423       .  A
C397        C398   1.396       .  A
C397        C400   1.426       .  S
C398        C401   1.429       .  S
C399        N406   1.158       .  T
C400        N405   1.151       .  T
C401        N403   1.154       .  T
C402        N404   1.154       .  T
C407        C408   1.468       .  A
C407        C412   1.452       .  A
C408        C409   1.395       .  A
C408        C413   1.449       .  S
C409        C410   1.370       .  A
C409        C920   1.435       .  S
C410        C411   1.401       .  A
C411        C412   1.442       .  A
C411        C414   1.437       .  S
C412        C415   1.445       .  S
C413        N420   1.158       .  T
C414        N419   1.154       .  T
C415        N417   1.157       .  T
C416        C913   1.435       .  S
C416        N418   1.152       .  T
C421        C422   1.435       .  A
C421        C426   1.440       .  A
C422        C423   1.416       .  A
C422        C427   1.443       .  S
C423        C424   1.405       .  A
C423        C430   1.440       .  S
C424        C425   1.398       .  A
C425        C426   1.406       .  A
C425        C428   1.434       .  S
C426        C429   1.452       .  S
C427        N434   1.155       .  T
C428       N1441   1.151       .  T
C429        N431   1.157       .  T
C430        N432   1.154       .  T
N433       C1436   1.151   1_455  T
C435        C436   1.459       .  A
C435        C440   1.382       .  A
C436        C437   1.459       .  A
C436        C441   1.448       .  S
C437        C438   1.436       .  A
C437        C444   1.443       .  S
C438        C439   1.406       .  A
C439        C440   1.389       .  A
C439        C442   1.443       .  S
C440        C443   1.464       .  S
C441        N448   1.157       .  T
C442        N951   1.157       .  T
C443        N445   1.157       .  T
C444       N1454   1.156       .  T
N446       C1452   1.156       .  T
N447        C946   1.157       .  T
C449        C454   1.401       .  A
C450        C451   1.409       .  A
C450        C455   1.447       .  S
C451        C458   1.445       .  S
C452        C453   1.459       .  A
C453        C454   1.420       .  A
C453        C456   1.454       .  S
C454        C457   1.451       .  S
C455        N462   1.155       .  T
C456        N461   1.157       .  T
C457        N459   1.156       .  T
C458        N460   1.157       .  T
C463        C464   1.451       .  A
C463        C468   1.419       .  A
C464        C465   1.428       .  A
C464        C469   1.445       .  S
C465        C466   1.413       .  A
C465        C472   1.446       .  S
C466        C467   1.410       .  A
C467        C468   1.401       .  A
C467        C470   1.441   1_556  S
C468        C471   1.447       .  S
C469        N476   1.156       .  T
C470        N475   1.156       .  T
C471        N473   1.158       .  T
C472       N1482   1.155       .  T
N474       C1480   1.155   1_455  T
C477        C478   1.410       .  A
C478        C479   1.422       .  A
C478        C483   1.448       .  S
C479        C480   1.438   1_556  A
C479        C486   1.450       .  S
C481        C482   1.406       .  A
C481        C484   1.454       .  S
C482        C485   1.459       .  S
C483        N490   1.156       .  T
C484        N489   1.158       .  T
C485        N487   1.157       .  T
C486        N488   1.156       .  T
C491        C492   1.426       .  A
C491        C496   1.425       .  A
C492        C493   1.426       .  A
C492        C497   1.449       .  S
C493        C494   1.456       .  A
C493        C500   1.450       .  S
C494        C495   1.405       .  A
C495        C496   1.398       .  A
C495        C498   1.450       .  S
C496        C499   1.444       .  S
C497        N504   1.157       .  T
C498        N503   1.158       .  T
C499        N501   1.156       .  T
C500        N502   1.158       .  T
C505        C704   1.628       .  S
C505        C967   1.617   1_554  S
C505        C984   1.598       .  S
C505        C743   1.589       .  S
C506        C659   1.654       .  S
C506        C673   1.595       .  S
C506        C687   1.629       .  S
C506        C746   1.632       .  S
C507        C606   1.616       .  S
C507        C617   1.604       .  S
C507        C631   1.596       .  S
C507        C645   1.612       .  S
C508        C561   1.592       .  S
C508        C575   1.629       .  S
C508        C589   1.634       .  S
C508        C648   1.606       .  S
C509        O776   1.258       .  A
C509        O511   1.265       .  A
C509        C729   1.504       .  S
Tb510      O1037   2.369   1_455  S
Tb510       O778   2.375       .  S
Tb510       O521   2.407       .  S
Tb510       O766   2.359       .  S
Tb510       O534   2.363       .  S
Tb510       O531   2.329       .  S
O511       Tb515   2.381       .  S
O512        C523   1.265       .  A
C513        O518   1.271       .  A
C513        O534   1.273       .  A
C513        C603   1.515       .  S
O514        C530   1.261       .  A
O514       Tb762   2.359       .  S
Tb515       O771   2.397       .  S
Tb515       O776   2.309       .  S
Tb515      O1526   2.350       .  S
Tb515       O527   2.370       .  S
O517        C520   1.267       .  A
O518      Tb1523   2.350   1_455  S
O519        C529   1.280       .  A
O519       Tb767   2.397   1_554  S
C520        O533   1.274       .  A
C520        C718   1.511       .  S
O521       C1536   1.284       .  A
C522        O531   1.262       .  A
C523        O777   1.260       .  A
C523        C634   1.477       .  S
O524        C761   1.258   1_554  A
O524       Tb767   2.309   1_554  S
O525        C775   1.260   1_554  A
O526       C1537   1.278       .  A
O526       Tb762   2.375   1_554  S
O527        C528   1.278       .  A
C528       O1529   1.284       .  A
C528        C555   1.517       .  S
C529       O1534   1.278       .  A
C529        C554   1.518       .  S
C530        C701   1.498       .  S
O533      Tb1014   2.369   1_565  S
C535        O550   1.262       .  A
C535        O537   1.260       .  A
C535        C690   1.513       .  S
Tb536      O1063   2.362   1_455  S
Tb536       O552   2.401       .  S
Tb536       O547   2.388       .  S
Tb536       O540   2.353       .  S
Tb536       O560   2.358       .  S
Tb536       O557   2.424       .  S
O537       Tb541   2.372       .  S
O538        C549   1.263       .  A
C539        O544   1.271       .  A
C539        O560   1.270       .  A
C539        C564   1.491       .  S
O540        C556   1.260       .  A
Tb541       O545   2.388       .  S
Tb541       O550   2.414       .  S
Tb541      O1552   2.335       .  S
Tb541       O553   2.400       .  S
O543        C546   1.272       .  A
O544      Tb1549   2.335   1_455  S
O545        C555   1.283       .  A
C546        O559   1.276       .  A
C546        C676   1.518       .  S
O547       C1562   1.282       .  A
C548        O557   1.261       .  A
C549        O551   1.259       .  A
C549        C592   1.508       .  S
O552       C1563   1.284       .  A
O553        C554   1.284       .  A
C554       O1555   1.282       .  A
C555       O1560   1.284       .  A
C556        C662   1.506       .  S
O559      Tb1040   2.362   1_565  S
C561        C562   1.436       .  A
C561        C566   1.423       .  A
C562        C563   1.430       .  A
C562        C567   1.446       .  S
C563        C564   1.413       .  A
C563        C570   1.445       .  S
C564        C565   1.402       .  A
C565        C566   1.395       .  A
C565        C568   1.452       .  S
C566        C569   1.446       .  S
C567        N574   1.157       .  T
C568        N573   1.157       .  T
C569        N571   1.157       .  T
C570        N572   1.157       .  T
C575        C576   1.439       .  A
C575        C580   1.463       .  A
C576        C577   1.403       .  A
C576        C581   1.436       .  S
C577        C578   1.374       .  A
C577        C584   1.441       .  S
C578        C579   1.396       .  A
C579        C580   1.442       .  A
C579        C582   1.440       .  S
C580        C583   1.445       .  S
C581        N588   1.154       .  T
C582        N587   1.154   1_455  T
C583        N585   1.158       .  T
C589        C590   1.408       .  A
C589        C594   1.462       .  A
C590        C591   1.399       .  A
C590        C595   1.439       .  S
C591        C592   1.390       .  A
C591        C598   1.435       .  S
C592        C593   1.409       .  A
C593        C594   1.445       .  A
C593        C596   1.441       .  S
C594        C597   1.447       .  S
C595        N602   1.155       .  T
C596        N601   1.156       .  T
C597        N599   1.158       .  T
C603        C604   1.413       .  A
C603        C608   1.406       .  A
C604        C605   1.420       .  A
C604        C609   1.432       .  S
C605        C606   1.444       .  A
C605        C612   1.454       .  S
C606        C607   1.433       .  A
C607        C608   1.402       .  A
C607        C610   1.450       .  S
C608        C611   1.440       .  S
C609       N1876   1.151   1_455  T
C610        N615   1.158       .  T
C611        N613   1.155       .  T
C612        N866   1.157       .  T
N614        C864   1.157       .  T
N616       C1869   1.151   1_554  T
C617        C618   1.443       .  A
C617        C622   1.427       .  A
C618        C619   1.422       .  A
C618        C875   1.441       .  S
C619        C620   1.409       .  A
C619        C878   1.443       .  S
C620        C621   1.404       .  A
C621        C622   1.403       .  A
C621        C624   1.447       .  S
C622        C625   1.438       .  S
C623        C870   1.441   1_554  S
C623        N630   1.154       .  T
C624        N629   1.157       .  T
C625        N627   1.155       .  T
C626        C871   1.443   1_554  S
C626        N628   1.154       .  T
C631        C632   1.454       .  A
C631        C636   1.439       .  A
C632        C633   1.408       .  A
C632        C637   1.450       .  S
C633        C634   1.396       .  A
C633        C640   1.455       .  S
C634        C887   1.403       .  A
C635        C886   1.403       .  A
C635        C888   1.416       .  A
C635        C638   1.454   1_556  S
C636        C887   1.416       .  A
C636        C891   1.444       .  S
C637        N644   1.154       .  T
C639        C888   1.444   1_554  S
C639        N641   1.157       .  T
C640        N642   1.157       .  T
C645        C646   1.451       .  A
C645        C650   1.415       .  A
C646        C647   1.412       .  A
C646        C651   1.451       .  S
C647        C648   1.427       .  A
C647        C654   1.432       .  S
C648        C649   1.423       .  A
C649        C650   1.396       .  A
C649        C652   1.426       .  S
C650        C653   1.429       .  S
C651        N658   1.158       .  T
C652        N657   1.151       .  T
C653        N655   1.154       .  T
C654        N656   1.154       .  T
C659        C660   1.468       .  A
C659        C664   1.452       .  A
C660        C661   1.395       .  A
C660        C665   1.449       .  S
C661        C662   1.370       .  A
C662        C663   1.401       .  A
C663        C664   1.442       .  A
C663        C666   1.437       .  S
C664        C667   1.445       .  S
C665        N672   1.158       .  T
C666        N671   1.154       .  T
C667        N669   1.157       .  T
C668        N670   1.152   1_545  T
C673        C674   1.435       .  A
C673        C678   1.440       .  A
C674        C675   1.416       .  A
C674        C679   1.443       .  S
C675        C676   1.405       .  A
C675        C682   1.440       .  S
C676        C677   1.398       .  A
C677        C678   1.406       .  A
C677        C680   1.434       .  S
C678        C681   1.452       .  S
C679        N686   1.155       .  T
C680       N1693   1.151       .  T
C681        N683   1.157       .  T
C682        N684   1.154       .  T
N685       C1688   1.151   1_455  T
C687        C688   1.459       .  A
C687        C692   1.382       .  A
C688        C689   1.459       .  A
C688        C693   1.448       .  S
C689        C690   1.436       .  A
C689        C696   1.443       .  S
C690        C691   1.406       .  A
C691        C692   1.389       .  A
C691        C694   1.443       .  S
C692        C695   1.464       .  S
C693        N700   1.157       .  T
C695        N697   1.157       .  T
C696       N1706   1.156       .  T
N698       C1704   1.156       .  T
C701        C954   1.400       .  A
C701        C706   1.401   1_556  A
C702        C953   1.400       .  A
C702        C703   1.409       .  A
C702        C707   1.447       .  S
C703        C956   1.443       .  A
C703        C710   1.445       .  S
C704        C955   1.443   1_554  A
C704        C705   1.459       .  A
C705        C706   1.420       .  A
C705        C708   1.454       .  S
C706        C709   1.451       .  S
C707        N714   1.155       .  T
C708        N713   1.157       .  T
C709        N711   1.156       .  T
C710        N712   1.157       .  T
C715        C757   1.617       .  S
C715        C716   1.451       .  A
C715        C720   1.419       .  A
C716        C717   1.428       .  A
C716        C721   1.445       .  S
C717        C718   1.413       .  A
C717        C724   1.446       .  S
C718        C719   1.410       .  A
C719        C720   1.401       .  A
C719        C722   1.441       .  S
C720        C723   1.447       .  S
C721        N728   1.156       .  T
C722        N727   1.156       .  T
C723        N725   1.158       .  T
C724       N1734   1.155       .  T
N726       C1732   1.155   1_455  T
C729        C730   1.410       .  A
C729        C986   1.410       .  A
C730        C731   1.422       .  A
C730        C735   1.448       .  S
C731        C732   1.438       .  A
C731        C738   1.450       .  S
C732        C757   1.598       .  S
C732        C985   1.447       .  A
C733        C984   1.447       .  A
C733        C734   1.406       .  A
C733        C736   1.454       .  S
C734        C981   1.410   1_554  A
C734        C737   1.459       .  S
C735        N742   1.156       .  T
C736        N741   1.158       .  T
C737        N739   1.157       .  T
C738        N740   1.156       .  T
C743        C744   1.426       .  A
C743        C748   1.425       .  A
C744        C745   1.426       .  A
C744        C749   1.449       .  S
C745        C746   1.456       .  A
C745        C752   1.450       .  S
C746        C747   1.405       .  A
C747        C748   1.398       .  A
C747        C750   1.450       .  S
C748        C751   1.444       .  S
C749        N756   1.157       .  T
C750        N755   1.158       .  T
C751        N753   1.156       .  T
C752        N754   1.158       .  T
C757        C956   1.628       .  S
C757        C995   1.589       .  S
C758        C911   1.654       .  S
C758        C925   1.595       .  S
C758        C939   1.629       .  S
C758        C998   1.632       .  S
C759        C858   1.616       .  S
C759        C869   1.604       .  S
C759        C883   1.596       .  S
C759        C897   1.612       .  S
C760        C813   1.592       .  S
C760        C827   1.629       .  S
C760        C841   1.634       .  S
C760        C900   1.606       .  S
C761        O763   1.265       .  A
C761        C981   1.504       .  S
Tb762      O1289   2.369   1_455  S
Tb762       O773   2.407       .  S
Tb762       O786   2.363       .  S
Tb762       O783   2.329       .  S
O763       Tb767   2.381       .  S
O764        C775   1.265       .  A
C765        O770   1.271       .  A
C765        O786   1.273       .  A
C765        C855   1.515       .  S
O766        C782   1.261       .  A
Tb767      O1778   2.350       .  S
Tb767       O779   2.370       .  S
O769        C772   1.267       .  A
O770      Tb1775   2.350   1_455  S
O771        C781   1.280       .  A
C772        O785   1.274       .  A
C772        C970   1.511       .  S
O773       C1788   1.284       .  A
C774        O783   1.262       .  A
C775        C886   1.477       .  S
O778       C1789   1.278       .  A
O779        C780   1.278       .  A
C780       O1781   1.284       .  A
C780        C807   1.517       .  S
C781       O1786   1.278       .  A
C781        C806   1.518       .  S
C782        C953   1.498       .  S
O785      Tb1266   2.369   1_565  S
C787        O802   1.262       .  A
C787        O789   1.260       .  A
C787        C942   1.513       .  S
Tb788      O1315   2.362   1_455  S
Tb788       O804   2.401       .  S
Tb788       O799   2.388       .  S
Tb788       O792   2.353       .  S
Tb788       O812   2.358       .  S
Tb788       O809   2.424       .  S
O789       Tb793   2.372       .  S
O790        C801   1.263       .  A
C791        O796   1.271       .  A
C791        O812   1.270       .  A
C791        C816   1.491       .  S
O792        C808   1.260       .  A
Tb793       O797   2.388       .  S
Tb793       O802   2.414       .  S
Tb793      O1804   2.335       .  S
Tb793       O805   2.400       .  S
O795        C798   1.272       .  A
O796      Tb1801   2.335   1_455  S
O797        C807   1.283       .  A
C798        O811   1.276       .  A
C798        C928   1.518       .  S
O799       C1814   1.282       .  A
C800        O809   1.261       .  A
C801        O803   1.259       .  A
C801        C844   1.508       .  S
O804       C1815   1.284       .  A
O805        C806   1.284       .  A
C806       O1807   1.282       .  A
C807       O1812   1.284       .  A
C808        C914   1.506       .  S
O811      Tb1292   2.362   1_565  S
C813        C814   1.436       .  A
C813        C818   1.423       .  A
C814        C815   1.430       .  A
C814        C819   1.446       .  S
C815        C816   1.413       .  A
C815        C822   1.445       .  S
C816        C817   1.402       .  A
C817        C818   1.395       .  A
C817        C820   1.452       .  S
C818        C821   1.446       .  S
C819        N826   1.157       .  T
C820        N825   1.157       .  T
C821        N823   1.157       .  T
C822        N824   1.157       .  T
C827        C828   1.439       .  A
C827        C832   1.463       .  A
C828        C829   1.403       .  A
C828        C833   1.436       .  S
C829        C830   1.374       .  A
C829        C836   1.441       .  S
C830        C831   1.396       .  A
C831        C832   1.442       .  A
C831        C834   1.440       .  S
C832        C835   1.445       .  S
C833        N840   1.154       .  T
C834        N839   1.154   1_455  T
C835        N837   1.158       .  T
C841        C842   1.408       .  A
C841        C846   1.462       .  A
C842        C843   1.399       .  A
C842        C847   1.439       .  S
C843        C844   1.390       .  A
C843        C850   1.435       .  S
C844        C845   1.409       .  A
C845        C846   1.445       .  A
C845        C848   1.441       .  S
C846        C849   1.447       .  S
C847        N854   1.155       .  T
C848        N853   1.156       .  T
C849        N851   1.158       .  T
C855        C856   1.413       .  A
C855        C860   1.406       .  A
C856        C857   1.420       .  A
C856        C861   1.432       .  S
C857        C858   1.444       .  A
C857        C864   1.454       .  S
C858        C859   1.433       .  A
C859        C860   1.402       .  A
C859        C862   1.450   1_556  S
C860        C863   1.440       .  S
C861       N1624   1.151   1_456  T
C862        N867   1.158       .  T
C863        N865   1.155       .  T
N868       C1617   1.151       .  T
C869        C870   1.443       .  A
C869        C874   1.427       .  A
C870        C871   1.422       .  A
C871        C872   1.409       .  A
C872        C873   1.404       .  A
C873        C874   1.403       .  A
C873        C876   1.447       .  S
C874        C877   1.438       .  S
C875        N882   1.154       .  T
C876        N881   1.157       .  T
C877        N879   1.155       .  T
C878        N880   1.154       .  T
C883        C884   1.454       .  A
C883        C888   1.439       .  A
C884        C885   1.408       .  A
C884        C889   1.450       .  S
C885        C886   1.396       .  A
C885        C892   1.455       .  S
C887        C890   1.454       .  S
C889        N896   1.154       .  T
C891        N893   1.157       .  T
C892        N894   1.157       .  T
C897        C898   1.451       .  A
C897        C902   1.415       .  A
C898        C899   1.412       .  A
C898        C903   1.451       .  S
C899        C900   1.427       .  A
C899        C906   1.432       .  S
C900        C901   1.423       .  A
C901        C902   1.396       .  A
C901        C904   1.426       .  S
C902        C905   1.429       .  S
C903        N910   1.158       .  T
C904        N909   1.151       .  T
C905        N907   1.154       .  T
C906        N908   1.154       .  T
C911        C912   1.468       .  A
C911        C916   1.452       .  A
C912        C913   1.395       .  A
C912        C917   1.449       .  S
C913        C914   1.370       .  A
C914        C915   1.401       .  A
C915        C916   1.442       .  A
C915        C918   1.437       .  S
C916        C919   1.445       .  S
C917        N924   1.158       .  T
C918        N923   1.154       .  T
C919        N921   1.157       .  T
C920        N922   1.152   1_545  T
C925        C926   1.435       .  A
C925        C930   1.440       .  A
C926        C927   1.416       .  A
C926        C931   1.443       .  S
C927        C928   1.405       .  A
C927        C934   1.440       .  S
C928        C929   1.398       .  A
C929        C930   1.406       .  A
C929        C932   1.434       .  S
C930        C933   1.452       .  S
C931        N938   1.155       .  T
C932       N1945   1.151       .  T
C933        N935   1.157       .  T
C934        N936   1.154       .  T
N937       C1940   1.151   1_455  T
C939        C940   1.459       .  A
C939        C944   1.382       .  A
C940        C941   1.459       .  A
C940        C945   1.448       .  S
C941        C942   1.436       .  A
C941        C948   1.443       .  S
C942        C943   1.406       .  A
C943        C944   1.389       .  A
C943        C946   1.443       .  S
C944        C947   1.464       .  S
C945        N952   1.157       .  T
C947        N949   1.157       .  T
C948       N1958   1.156       .  T
N950       C1956   1.156       .  T
C953        C958   1.401       .  A
C954        C955   1.409       .  A
C954        C959   1.447       .  S
C955        C962   1.445       .  S
C956        C957   1.459       .  A
C957        C958   1.420       .  A
C957        C960   1.454       .  S
C958        C961   1.451       .  S
C959        N966   1.155       .  T
C960        N965   1.157       .  T
C961        N963   1.156       .  T
C962        N964   1.157       .  T
C967        C968   1.451       .  A
C967        C972   1.419       .  A
C968        C969   1.428       .  A
C968        C973   1.445       .  S
C969        C970   1.413       .  A
C969        C976   1.446       .  S
C970        C971   1.410       .  A
C971        C972   1.401       .  A
C971        C974   1.441   1_556  S
C972        C975   1.447       .  S
C973        N980   1.156       .  T
C974        N979   1.156       .  T
C975        N977   1.158       .  T
C976       N1986   1.155       .  T
N978       C1984   1.155   1_455  T
C981        C982   1.410       .  A
C982        C983   1.422       .  A
C982        C987   1.448       .  S
C983        C984   1.438   1_556  A
C983        C990   1.450       .  S
C985        C986   1.406       .  A
C985        C988   1.454       .  S
C986        C989   1.459       .  S
C987        N994   1.156       .  T
C988        N993   1.158       .  T
C989        N991   1.157       .  T
C990        N992   1.156       .  T
C995        C996   1.426       .  A
C995       C1000   1.425       .  A
C996        C997   1.426       .  A
C996       C1001   1.449       .  S
C997        C998   1.456       .  A
C997       C1004   1.450       .  S
C998        C999   1.405       .  A
C999       C1000   1.398       .  A
C999       C1002   1.450       .  S
C1000      C1003   1.444       .  S
C1001      N1008   1.157       .  T
C1002      N1007   1.158       .  T
C1003      N1005   1.156       .  T
C1004      N1006   1.158       .  T
C1009      C1208   1.628       .  S
C1009      C1471   1.617   1_554  S
C1009      C1488   1.598       .  S
C1009      C1247   1.589       .  S
C1010      C1163   1.654       .  S
C1010      C1177   1.595       .  S
C1010      C1191   1.629       .  S
C1010      C1250   1.632       .  S
C1011      C1110   1.616       .  S
C1011      C1121   1.604       .  S
C1011      C1135   1.596       .  S
C1011      C1149   1.612       .  S
C1012      C1065   1.592       .  S
C1012      C1079   1.629       .  S
C1012      C1093   1.634       .  S
C1012      C1152   1.606       .  S
C1013      O1280   1.258       .  A
C1013      O1015   1.265       .  A
C1013      C1233   1.504       .  S
Tb1014     O1792   2.372       .  S
Tb1014     O1524   2.373   1_545  S
Tb1014     O1282   2.375       .  S
Tb1014     O1025   2.407       .  S
Tb1014     O1270   2.359       .  S
Tb1014     O1038   2.363       .  S
Tb1014     O1035   2.329   1_545  S
O1015     Tb1019   2.381       .  S
O1016      C1027   1.265       .  A
O1016     Tb1523   2.350       .  S
C1017      O1022   1.271       .  A
C1017      O1038   1.273       .  A
C1017      C1107   1.515       .  S
O1018      C1034   1.261       .  A
O1018     Tb1266   2.359       .  S
Tb1019     O1520   2.350   1_545  S
Tb1019     O1275   2.397       .  S
Tb1019     O1280   2.309       .  S
Tb1019     O1785   2.337   1_545  S
Tb1019     O1031   2.370       .  S
Tb1019     O1525   2.347   1_545  S
O1020      C1530   1.264       .  A
O1020     Tb1518   2.373       .  S
O1021      C1024   1.267       .  A
O1021     Tb1523   2.347       .  S
O1023      C1033   1.280   1_655  A
O1023     Tb1271   2.397   1_554  S
C1024      O1037   1.274       .  A
C1024      C1222   1.511       .  S
C1026      O1524   1.264       .  A
C1026      O1035   1.262       .  A
C1026      C1628   1.508       .  S
C1027      O1281   1.260       .  A
C1027      C1138   1.477       .  S
O1028      C1265   1.258   1_554  A
O1028     Tb1271   2.309   1_554  S
O1029      C1279   1.260   1_554  A
O1029     Tb1775   2.337   1_554  S
O1030     Tb1266   2.375   1_554  S
O1031      C1032   1.278   1_655  A
C1032      C1059   1.517       .  S
C1033      C1058   1.518       .  S
C1034      O1540   1.263   1_556  A
C1034      C1205   1.498       .  S
O1036      C1538   1.263   1_554  A
O1036     Tb1770   2.372   1_554  S
C1039      O1054   1.262       .  A
C1039      O1041   1.260       .  A
C1039      C1194   1.513       .  S
Tb1040     O1566   2.429       .  S
Tb1040     O1550   2.356   1_545  S
Tb1040     O1056   2.401       .  S
Tb1040     O1051   2.388       .  S
Tb1040     O1044   2.353       .  S
Tb1040     O1064   2.358       .  S
Tb1040     O1061   2.424   1_545  S
O1041     Tb1045   2.372       .  S
O1042      C1053   1.263       .  A
O1042     Tb1549   2.412       .  S
C1043      O1048   1.271       .  A
C1043      O1064   1.270       .  A
C1043      C1068   1.491       .  S
O1044      C1060   1.260       .  A
Tb1045     O1546   2.412   1_545  S
Tb1045     O1049   2.388       .  S
Tb1045     O1054   2.414       .  S
Tb1045     O1559   2.347   1_545  S
Tb1045     O1057   2.400       .  S
Tb1045     O1551   2.346   1_545  S
O1046      C1556   1.257       .  A
O1046     Tb1544   2.356       .  S
O1047      C1050   1.272       .  A
O1047     Tb1549   2.346       .  S
O1049      C1059   1.283   1_655  A
C1050      O1063   1.276       .  A
C1050      C1180   1.518       .  S
C1052      O1550   1.257       .  A
C1052      O1061   1.261       .  A
C1052      C1586   1.506       .  S
C1053      O1055   1.259       .  A
C1053      C1096   1.508       .  S
O1055     Tb1549   2.347       .  S
O1057      C1058   1.284   1_655  A
C1060      O1566   1.263       .  A
C1060      C1166   1.506       .  S
O1062      C1564   1.263       .  A
O1062     Tb1544   2.429       .  S
C1065      C1066   1.436       .  A
C1065      C1070   1.423       .  A
C1066      C1067   1.430       .  A
C1066      C1071   1.446       .  S
C1067      C1068   1.413       .  A
C1067      C1074   1.445       .  S
C1068      C1069   1.402       .  A
C1069      C1070   1.395       .  A
C1069      C1072   1.452       .  S
C1070      C1073   1.446       .  S
C1071      N1078   1.157       .  T
C1072      N1077   1.157       .  T
C1073      N1075   1.157       .  T
C1074      N1076   1.157       .  T
C1079      C1080   1.439       .  A
C1079      C1084   1.463       .  A
C1080      C1081   1.403       .  A
C1080      C1085   1.436       .  S
C1081      C1082   1.374       .  A
C1081      C1088   1.441       .  S
C1082      C1556   1.506       .  S
C1082      C1083   1.396       .  A
C1083      C1084   1.442       .  A
C1083      C1086   1.440       .  S
C1084      C1087   1.445       .  S
C1085      N1092   1.154       .  T
C1086      N1091   1.154       .  T
C1087      N1089   1.158       .  T
C1088      N1594   1.157       .  T
N1090      C1592   1.157   1_545  T
C1093      C1094   1.408       .  A
C1093      C1098   1.462       .  A
C1094      C1095   1.399       .  A
C1094      C1099   1.439       .  S
C1095      C1096   1.390       .  A
C1095      C1102   1.435       .  S
C1096      C1097   1.409       .  A
C1097      C1098   1.445       .  A
C1097      C1100   1.441       .  S
C1098      C1101   1.447       .  S
C1099      N1106   1.155       .  T
C1100      N1105   1.156       .  T
C1101      N1103   1.158       .  T
C1102      N1608   1.154       .  T
N1104      C1606   1.154       .  T
C1107      C1108   1.413       .  A
C1107      C1112   1.406       .  A
C1108      C1109   1.420       .  A
C1108      C1113   1.432       .  S
C1109      C1110   1.444       .  A
C1109      C1116   1.454       .  S
C1110      C1111   1.433       .  A
C1111      C1112   1.402       .  A
C1111      C1114   1.450       .  S
C1112      C1115   1.440       .  S
C1114      N1119   1.158       .  T
C1115      N1117   1.155       .  T
C1116      N1370   1.157       .  T
N1118      C1368   1.157       .  T
C1121      C1122   1.443       .  A
C1121      C1126   1.427       .  A
C1122      C1123   1.422       .  A
C1122      C1379   1.441       .  S
C1123      C1124   1.409       .  A
C1123      C1382   1.443       .  S
C1124      C1530   1.508       .  S
C1124      C1125   1.404       .  A
C1125      C1126   1.403       .  A
C1125      C1128   1.447       .  S
C1126      C1129   1.438       .  S
C1127      C1374   1.441   1_554  S
C1127      N1134   1.154       .  T
C1128      N1133   1.157       .  T
C1129      N1131   1.155       .  T
C1130      C1375   1.443   1_554  S
C1130      N1132   1.154       .  T
C1135      C1136   1.454       .  A
C1135      C1140   1.439       .  A
C1136      C1137   1.408       .  A
C1136      C1141   1.450       .  S
C1137      C1138   1.396       .  A
C1137      C1144   1.455       .  S
C1138      C1391   1.403       .  A
C1139      C1390   1.403       .  A
C1139      C1392   1.416       .  A
C1139      C1142   1.454   1_556  S
C1140      C1391   1.416       .  A
C1140      C1395   1.444       .  S
C1141      N1148   1.154       .  T
C1142      N1651   1.157       .  T
C1143      C1392   1.444   1_554  S
C1143      N1145   1.157       .  T
C1144      N1146   1.157       .  T
N1147      C1646   1.157       .  T
C1149      C1150   1.451       .  A
C1149      C1154   1.415       .  A
C1150      C1151   1.412       .  A
C1150      C1155   1.451       .  S
C1151      C1152   1.427       .  A
C1151      C1158   1.432       .  S
C1152      C1153   1.423       .  A
C1153      C1154   1.396       .  A
C1153      C1156   1.426       .  S
C1154      C1157   1.429       .  S
C1155      N1162   1.158       .  T
C1156      N1161   1.151       .  T
C1157      N1159   1.154       .  T
C1158      N1160   1.154       .  T
C1163      C1164   1.468       .  A
C1163      C1168   1.452       .  A
C1164      C1165   1.395       .  A
C1164      C1169   1.449       .  S
C1165      C1166   1.370       .  A
C1165      C1676   1.435       .  S
C1166      C1167   1.401       .  A
C1167      C1168   1.442       .  A
C1167      C1170   1.437       .  S
C1168      C1171   1.445       .  S
C1169      N1176   1.158       .  T
C1170      N1175   1.154       .  T
C1171      N1173   1.157       .  T
C1172      C1669   1.435       .  S
C1172      N1174   1.152       .  T
C1177      C1178   1.435       .  A
C1177      C1182   1.440       .  A
C1178      C1179   1.416       .  A
C1178      C1183   1.443       .  S
C1179      C1180   1.405       .  A
C1179      C1186   1.440       .  S
C1180      C1181   1.398       .  A
C1181      C1182   1.406       .  A
C1181      C1184   1.434       .  S
C1182      C1185   1.452       .  S
C1183      N1190   1.155       .  T
C1185      N1187   1.157       .  T
C1186      N1188   1.154       .  T
C1191      C1192   1.459       .  A
C1191      C1196   1.382       .  A
C1192      C1193   1.459       .  A
C1192      C1197   1.448       .  S
C1193      C1194   1.436       .  A
C1193      C1200   1.443       .  S
C1194      C1195   1.406       .  A
C1195      C1196   1.389       .  A
C1195      C1198   1.443       .  S
C1196      C1199   1.464       .  S
C1197      N1204   1.157       .  T
C1198      N1707   1.157       .  T
C1199      N1201   1.157       .  T
N1203      C1702   1.157       .  T
C1205      C1458   1.400       .  A
C1205      C1210   1.401   1_556  A
C1206      C1457   1.400       .  A
C1206      C1207   1.409       .  A
C1206      C1211   1.447       .  S
C1207      C1460   1.443       .  A
C1207      C1214   1.445       .  S
C1208      C1459   1.443   1_554  A
C1208      C1209   1.459       .  A
C1209      C1210   1.420       .  A
C1209      C1212   1.454       .  S
C1210      C1213   1.451       .  S
C1211      N1218   1.155       .  T
C1212      N1217   1.157       .  T
C1213      N1215   1.156       .  T
C1214      N1216   1.157       .  T
C1219      C1261   1.617       .  S
C1219      C1220   1.451       .  A
C1219      C1224   1.419       .  A
C1220      C1221   1.428       .  A
C1220      C1225   1.445       .  S
C1221      C1222   1.413       .  A
C1221      C1228   1.446       .  S
C1222      C1223   1.410       .  A
C1223      C1224   1.401       .  A
C1223      C1226   1.441       .  S
C1224      C1227   1.447       .  S
C1225      N1232   1.156       .  T
C1226      N1231   1.156       .  T
C1227      N1229   1.158       .  T
C1233      C1234   1.410       .  A
C1233      C1490   1.410       .  A
C1234      C1235   1.422       .  A
C1234      C1239   1.448       .  S
C1235      C1236   1.438       .  A
C1235      C1242   1.450       .  S
C1236      C1261   1.598       .  S
C1236      C1489   1.447       .  A
C1237      C1488   1.447       .  A
C1237      C1238   1.406       .  A
C1237      C1240   1.454       .  S
C1238      C1485   1.410   1_554  A
C1238      C1241   1.459       .  S
C1239      N1246   1.156       .  T
C1240      N1245   1.158       .  T
C1241      N1243   1.157       .  T
C1242      N1244   1.156       .  T
C1247      C1248   1.426       .  A
C1247      C1252   1.425       .  A
C1248      C1249   1.426       .  A
C1248      C1253   1.449       .  S
C1249      C1250   1.456       .  A
C1249      C1256   1.450       .  S
C1250      C1251   1.405       .  A
C1251      C1252   1.398       .  A
C1251      C1254   1.450       .  S
C1252      C1255   1.444       .  S
C1253      N1260   1.157       .  T
C1254      N1259   1.158       .  T
C1255      N1257   1.156       .  T
C1256      N1258   1.158       .  T
C1261      C1460   1.628       .  S
C1261      C1499   1.589       .  S
C1262      C1415   1.654       .  S
C1262      C1429   1.595       .  S
C1262      C1443   1.629       .  S
C1262      C1502   1.632       .  S
C1263      C1362   1.616       .  S
C1263      C1373   1.604       .  S
C1263      C1387   1.596       .  S
C1263      C1401   1.612       .  S
C1264      C1317   1.592       .  S
C1264      C1331   1.629       .  S
C1264      C1345   1.634       .  S
C1264      C1404   1.606       .  S
C1265      O1267   1.265       .  A
C1265      C1485   1.504       .  S
Tb1266     O1540   2.372   1_556  S
Tb1266     O1776   2.373   1_546  S
Tb1266     O1277   2.407       .  S
Tb1266     O1290   2.363       .  S
Tb1266     O1287   2.329   1_545  S
O1267     Tb1271   2.381       .  S
O1268      C1279   1.265       .  A
O1268     Tb1775   2.350       .  S
C1269      O1274   1.271       .  A
C1269      O1290   1.273       .  A
C1269      C1359   1.515       .  S
O1270      C1286   1.261       .  A
Tb1271     O1772   2.350   1_545  S
Tb1271     O1533   2.337   1_546  S
Tb1271     O1283   2.370       .  S
Tb1271     O1777   2.347   1_545  S
O1272      C1782   1.264   1_554  A
O1272     Tb1770   2.373   1_554  S
O1273      C1276   1.267       .  A
O1273     Tb1775   2.347       .  S
O1275      C1285   1.280   1_655  A
C1276      O1289   1.274       .  A
C1276      C1474   1.511       .  S
C1278      O1776   1.264   1_556  A
C1278      O1287   1.262       .  A
C1278      C1880   1.508       .  S
C1279      C1390   1.477       .  S
O1281     Tb1523   2.337       .  S
O1283      C1284   1.278   1_655  A
C1284      C1311   1.517       .  S
C1285      C1310   1.518       .  S
C1286      O1792   1.263       .  A
C1286      C1457   1.498       .  S
O1288      C1790   1.263       .  A
O1288     Tb1518   2.372       .  S
C1291      O1306   1.262       .  A
C1291      O1293   1.260       .  A
C1291      C1446   1.513       .  S
Tb1292     O1818   2.429       .  S
Tb1292     O1802   2.356   1_545  S
Tb1292     O1308   2.401       .  S
Tb1292     O1303   2.388       .  S
Tb1292     O1296   2.353       .  S
Tb1292     O1316   2.358       .  S
Tb1292     O1313   2.424   1_545  S
O1293     Tb1297   2.372       .  S
O1294      C1305   1.263       .  A
O1294     Tb1801   2.412       .  S
C1295      O1300   1.271       .  A
C1295      O1316   1.270       .  A
C1295      C1320   1.491       .  S
O1296      C1312   1.260       .  A
Tb1297     O1798   2.412   1_545  S
Tb1297     O1301   2.388       .  S
Tb1297     O1306   2.414       .  S
Tb1297     O1811   2.347   1_545  S
Tb1297     O1309   2.400       .  S
Tb1297     O1803   2.346   1_545  S
O1298      C1808   1.257       .  A
O1298     Tb1796   2.356       .  S
O1299      C1302   1.272       .  A
O1299     Tb1801   2.346       .  S
O1301      C1311   1.283   1_655  A
C1302      O1315   1.276       .  A
C1302      C1432   1.518       .  S
C1304      O1802   1.257       .  A
C1304      O1313   1.261       .  A
C1304      C1838   1.506       .  S
C1305      O1307   1.259       .  A
C1305      C1348   1.508       .  S
O1307     Tb1801   2.347       .  S
O1309      C1310   1.284   1_655  A
C1312      O1818   1.263       .  A
C1312      C1418   1.506       .  S
O1314      C1816   1.263       .  A
O1314     Tb1796   2.429       .  S
C1317      C1318   1.436       .  A
C1317      C1322   1.423       .  A
C1318      C1319   1.430       .  A
C1318      C1323   1.446       .  S
C1319      C1320   1.413       .  A
C1319      C1326   1.445       .  S
C1320      C1321   1.402       .  A
C1321      C1322   1.395       .  A
C1321      C1324   1.452       .  S
C1322      C1325   1.446       .  S
C1323      N1330   1.157       .  T
C1324      N1329   1.157       .  T
C1325      N1327   1.157       .  T
C1326      N1328   1.157       .  T
C1331      C1332   1.439       .  A
C1331      C1336   1.463       .  A
C1332      C1333   1.403       .  A
C1332      C1337   1.436       .  S
C1333      C1334   1.374       .  A
C1333      C1340   1.441       .  S
C1334      C1808   1.506       .  S
C1334      C1335   1.396       .  A
C1335      C1336   1.442       .  A
C1335      C1338   1.440       .  S
C1336      C1339   1.445       .  S
C1337      N1344   1.154       .  T
C1338      N1343   1.154       .  T
C1339      N1341   1.158       .  T
C1340      N1846   1.157       .  T
N1342      C1844   1.157   1_545  T
C1345      C1346   1.408       .  A
C1345      C1350   1.462       .  A
C1346      C1347   1.399       .  A
C1346      C1351   1.439       .  S
C1347      C1348   1.390       .  A
C1347      C1354   1.435       .  S
C1348      C1349   1.409       .  A
C1349      C1350   1.445       .  A
C1349      C1352   1.441       .  S
C1350      C1353   1.447       .  S
C1351      N1358   1.155       .  T
C1352      N1357   1.156       .  T
C1353      N1355   1.158       .  T
C1354      N1860   1.154       .  T
N1356      C1858   1.154       .  T
C1359      C1360   1.413       .  A
C1359      C1364   1.406       .  A
C1360      C1361   1.420       .  A
C1360      C1365   1.432       .  S
C1361      C1362   1.444       .  A
C1361      C1368   1.454       .  S
C1362      C1363   1.433       .  A
C1363      C1364   1.402       .  A
C1363      C1366   1.450   1_556  S
C1364      C1367   1.440       .  S
C1366      N1371   1.158       .  T
C1367      N1369   1.155       .  T
C1373      C1374   1.443       .  A
C1373      C1378   1.427       .  A
C1374      C1375   1.422       .  A
C1375      C1376   1.409       .  A
C1376      C1782   1.508       .  S
C1376      C1377   1.404       .  A
C1377      C1378   1.403       .  A
C1377      C1380   1.447       .  S
C1378      C1381   1.438       .  S
C1379      N1386   1.154       .  T
C1380      N1385   1.157       .  T
C1381      N1383   1.155       .  T
C1382      N1384   1.154       .  T
C1387      C1388   1.454       .  A
C1387      C1392   1.439       .  A
C1388      C1389   1.408       .  A
C1388      C1393   1.450       .  S
C1389      C1390   1.396       .  A
C1389      C1396   1.455       .  S
C1391      C1394   1.454       .  S
C1393      N1400   1.154       .  T
C1394      N1903   1.157       .  T
C1395      N1397   1.157       .  T
C1396      N1398   1.157       .  T
N1399      C1898   1.157       .  T
C1401      C1402   1.451       .  A
C1401      C1406   1.415       .  A
C1402      C1403   1.412       .  A
C1402      C1407   1.451       .  S
C1403      C1404   1.427       .  A
C1403      C1410   1.432       .  S
C1404      C1405   1.423       .  A
C1405      C1406   1.396       .  A
C1405      C1408   1.426       .  S
C1406      C1409   1.429       .  S
C1407      N1414   1.158       .  T
C1408      N1413   1.151       .  T
C1409      N1411   1.154       .  T
C1410      N1412   1.154       .  T
C1415      C1416   1.468       .  A
C1415      C1420   1.452       .  A
C1416      C1417   1.395       .  A
C1416      C1421   1.449       .  S
C1417      C1418   1.370       .  A
C1417      C1928   1.435       .  S
C1418      C1419   1.401       .  A
C1419      C1420   1.442       .  A
C1419      C1422   1.437       .  S
C1420      C1423   1.445       .  S
C1421      N1428   1.158       .  T
C1422      N1427   1.154       .  T
C1423      N1425   1.157       .  T
C1424      C1921   1.435       .  S
C1424      N1426   1.152       .  T
C1429      C1430   1.435       .  A
C1429      C1434   1.440       .  A
C1430      C1431   1.416       .  A
C1430      C1435   1.443       .  S
C1431      C1432   1.405       .  A
C1431      C1438   1.440       .  S
C1432      C1433   1.398       .  A
C1433      C1434   1.406       .  A
C1433      C1436   1.434       .  S
C1434      C1437   1.452       .  S
C1435      N1442   1.155       .  T
C1437      N1439   1.157       .  T
C1438      N1440   1.154       .  T
C1443      C1444   1.459       .  A
C1443      C1448   1.382       .  A
C1444      C1445   1.459       .  A
C1444      C1449   1.448       .  S
C1445      C1446   1.436       .  A
C1445      C1452   1.443       .  S
C1446      C1447   1.406       .  A
C1447      C1448   1.389       .  A
C1447      C1450   1.443       .  S
C1448      C1451   1.464       .  S
C1449      N1456   1.157       .  T
C1450      N1959   1.157       .  T
C1451      N1453   1.157       .  T
N1455      C1954   1.157       .  T
C1457      C1462   1.401       .  A
C1458      C1459   1.409       .  A
C1458      C1463   1.447       .  S
C1459      C1466   1.445       .  S
C1460      C1461   1.459       .  A
C1461      C1462   1.420       .  A
C1461      C1464   1.454       .  S
C1462      C1465   1.451       .  S
C1463      N1470   1.155       .  T
C1464      N1469   1.157       .  T
C1465      N1467   1.156       .  T
C1466      N1468   1.157       .  T
C1471      C1472   1.451       .  A
C1471      C1476   1.419       .  A
C1472      C1473   1.428       .  A
C1472      C1477   1.445       .  S
C1473      C1474   1.413       .  A
C1473      C1480   1.446       .  S
C1474      C1475   1.410       .  A
C1475      C1476   1.401       .  A
C1475      C1478   1.441   1_556  S
C1476      C1479   1.447       .  S
C1477      N1484   1.156       .  T
C1478      N1483   1.156       .  T
C1479      N1481   1.158       .  T
C1485      C1486   1.410       .  A
C1486      C1487   1.422       .  A
C1486      C1491   1.448       .  S
C1487      C1488   1.438   1_556  A
C1487      C1494   1.450       .  S
C1489      C1490   1.406       .  A
C1489      C1492   1.454       .  S
C1490      C1493   1.459       .  S
C1491      N1498   1.156       .  T
C1492      N1497   1.158       .  T
C1493      N1495   1.157       .  T
C1494      N1496   1.156       .  T
C1499      C1500   1.426       .  A
C1499      C1504   1.425       .  A
C1500      C1501   1.426       .  A
C1500      C1505   1.449       .  S
C1501      C1502   1.456       .  A
C1501      C1508   1.450       .  S
C1502      C1503   1.405       .  A
C1503      C1504   1.398       .  A
C1503      C1506   1.450       .  S
C1504      C1507   1.444       .  S
C1505      N1512   1.157       .  T
C1506      N1511   1.158       .  T
C1507      N1509   1.156       .  T
C1508      N1510   1.158       .  T
C1513      C1712   1.628       .  S
C1513      C1975   1.617   1_554  S
C1513      C1992   1.598       .  S
C1513      C1751   1.589       .  S
C1514      C1667   1.654       .  S
C1514      C1681   1.595       .  S
C1514      C1695   1.629       .  S
C1514      C1754   1.632       .  S
C1515      C1614   1.616       .  S
C1515      C1625   1.604       .  S
C1515      C1639   1.596       .  S
C1515      C1653   1.612       .  S
C1516      C1569   1.592       .  S
C1516      C1583   1.629       .  S
C1516      C1597   1.634       .  S
C1516      C1656   1.606       .  S
C1517      O1784   1.258       .  A
C1517      O1519   1.265       .  A
C1517      C1737   1.504       .  S
Tb1518     O1786   2.375       .  S
Tb1518     O1529   2.407       .  S
Tb1518     O1774   2.359       .  S
Tb1518     O1542   2.363       .  S
Tb1518     O1539   2.329       .  S
O1519     Tb1523   2.381       .  S
O1520      C1531   1.265       .  A
C1521      O1526   1.271       .  A
C1521      O1542   1.273       .  A
C1521      C1611   1.515       .  S
O1522      C1538   1.261       .  A
O1522     Tb1770   2.359       .  S
Tb1523     O1779   2.397       .  S
Tb1523     O1784   2.309       .  S
Tb1523     O1535   2.370       .  S
O1525      C1528   1.267       .  A
O1527      C1537   1.280   1_655  A
O1527     Tb1775   2.397   1_554  S
C1528      O1541   1.274       .  A
C1528      C1726   1.511       .  S
C1530      O1539   1.262       .  A
C1531      O1785   1.260       .  A
C1531      C1642   1.477       .  S
O1532      C1769   1.258   1_554  A
O1532     Tb1775   2.309   1_554  S
O1533      C1783   1.260   1_554  A
O1534     Tb1770   2.375   1_554  S
O1535      C1536   1.278   1_655  A
C1536      C1563   1.517       .  S
C1537      C1562   1.518       .  S
C1538      C1709   1.498       .  S
C1543      O1558   1.262       .  A
C1543      O1545   1.260       .  A
C1543      C1698   1.513       .  S
Tb1544     O1560   2.401       .  S
Tb1544     O1555   2.388       .  S
Tb1544     O1548   2.353       .  S
Tb1544     O1568   2.358       .  S
Tb1544     O1565   2.424       .  S
O1545     Tb1549   2.372       .  S
O1546      C1557   1.263       .  A
C1547      O1552   1.271       .  A
C1547      O1568   1.270       .  A
C1547      C1572   1.491       .  S
O1548      C1564   1.260       .  A
Tb1549     O1553   2.388       .  S
Tb1549     O1558   2.414       .  S
Tb1549     O1561   2.400       .  S
O1551      C1554   1.272       .  A
O1553      C1563   1.283   1_655  A
C1554      O1567   1.276       .  A
C1554      C1684   1.518       .  S
C1556      O1565   1.261       .  A
C1557      O1559   1.259       .  A
C1557      C1600   1.508       .  S
O1561      C1562   1.284   1_655  A
C1564      C1670   1.506       .  S
C1569      C1570   1.436       .  A
C1569      C1574   1.423       .  A
C1570      C1571   1.430       .  A
C1570      C1575   1.446       .  S
C1571      C1572   1.413       .  A
C1571      C1578   1.445       .  S
C1572      C1573   1.402       .  A
C1573      C1574   1.395       .  A
C1573      C1576   1.452       .  S
C1574      C1577   1.446       .  S
C1575      N1582   1.157       .  T
C1576      N1581   1.157       .  T
C1577      N1579   1.157       .  T
C1578      N1580   1.157       .  T
C1583      C1584   1.439       .  A
C1583      C1588   1.463       .  A
C1584      C1585   1.403       .  A
C1584      C1589   1.436       .  S
C1585      C1586   1.374       .  A
C1585      C1592   1.441       .  S
C1586      C1587   1.396       .  A
C1587      C1588   1.442       .  A
C1587      C1590   1.440       .  S
C1588      C1591   1.445       .  S
C1589      N1596   1.154       .  T
C1590      N1595   1.154       .  T
C1591      N1593   1.158       .  T
C1597      C1598   1.408       .  A
C1597      C1602   1.462       .  A
C1598      C1599   1.399       .  A
C1598      C1603   1.439       .  S
C1599      C1600   1.390       .  A
C1599      C1606   1.435       .  S
C1600      C1601   1.409       .  A
C1601      C1602   1.445       .  A
C1601      C1604   1.441       .  S
C1602      C1605   1.447       .  S
C1603      N1610   1.155       .  T
C1604      N1609   1.156       .  T
C1605      N1607   1.158       .  T
C1611      C1612   1.413       .  A
C1611      C1616   1.406       .  A
C1612      C1613   1.420       .  A
C1612      C1617   1.432       .  S
C1613      C1614   1.444       .  A
C1613      C1620   1.454       .  S
C1614      C1615   1.433       .  A
C1615      C1616   1.402       .  A
C1615      C1618   1.450       .  S
C1616      C1619   1.440       .  S
C1618      N1623   1.158       .  T
C1619      N1621   1.155       .  T
C1620      N1874   1.157       .  T
N1622      C1872   1.157       .  T
C1625      C1626   1.443       .  A
C1625      C1630   1.427       .  A
C1626      C1627   1.422       .  A
C1626      C1883   1.441       .  S
C1627      C1628   1.409       .  A
C1627      C1886   1.443       .  S
C1628      C1629   1.404       .  A
C1629      C1630   1.403       .  A
C1629      C1632   1.447       .  S
C1630      C1633   1.438       .  S
C1631      C1878   1.441   1_554  S
C1631      N1638   1.154       .  T
C1632      N1637   1.157       .  T
C1633      N1635   1.155       .  T
C1634      C1879   1.443   1_554  S
C1634      N1636   1.154       .  T
C1639      C1640   1.454       .  A
C1639      C1644   1.439       .  A
C1640      C1641   1.408       .  A
C1640      C1645   1.450       .  S
C1641      C1642   1.396       .  A
C1641      C1648   1.455       .  S
C1642      C1895   1.403       .  A
C1643      C1894   1.403       .  A
C1643      C1896   1.416       .  A
C1643      C1646   1.454   1_556  S
C1644      C1895   1.416       .  A
C1644      C1899   1.444       .  S
C1645      N1652   1.154       .  T
C1647      C1896   1.444   1_554  S
C1647      N1649   1.157       .  T
C1648      N1650   1.157       .  T
C1653      C1654   1.451       .  A
C1653      C1658   1.415       .  A
C1654      C1655   1.412       .  A
C1654      C1659   1.451       .  S
C1655      C1656   1.427       .  A
C1655      C1662   1.432       .  S
C1656      C1657   1.423       .  A
C1657      C1658   1.396       .  A
C1657      C1660   1.426       .  S
C1658      C1661   1.429       .  S
C1659      N1666   1.158       .  T
C1660      N1665   1.151       .  T
C1661      N1663   1.154       .  T
C1662      N1664   1.154       .  T
C1667      C1668   1.468       .  A
C1667      C1672   1.452       .  A
C1668      C1669   1.395       .  A
C1668      C1673   1.449       .  S
C1669      C1670   1.370       .  A
C1670      C1671   1.401       .  A
C1671      C1672   1.442       .  A
C1671      C1674   1.437       .  S
C1672      C1675   1.445       .  S
C1673      N1680   1.158       .  T
C1674      N1679   1.154       .  T
C1675      N1677   1.157       .  T
C1676      N1678   1.152   1_545  T
C1681      C1682   1.435       .  A
C1681      C1686   1.440       .  A
C1682      C1683   1.416       .  A
C1682      C1687   1.443       .  S
C1683      C1684   1.405       .  A
C1683      C1690   1.440       .  S
C1684      C1685   1.398       .  A
C1685      C1686   1.406       .  A
C1685      C1688   1.434       .  S
C1686      C1689   1.452       .  S
C1687      N1694   1.155       .  T
C1689      N1691   1.157       .  T
C1690      N1692   1.154       .  T
C1695      C1696   1.459       .  A
C1695      C1700   1.382       .  A
C1696      C1697   1.459       .  A
C1696      C1701   1.448       .  S
C1697      C1698   1.436       .  A
C1697      C1704   1.443       .  S
C1698      C1699   1.406       .  A
C1699      C1700   1.389       .  A
C1699      C1702   1.443       .  S
C1700      C1703   1.464       .  S
C1701      N1708   1.157       .  T
C1703      N1705   1.157       .  T
C1709      C1962   1.400       .  A
C1709      C1714   1.401   1_556  A
C1710      C1961   1.400       .  A
C1710      C1711   1.409       .  A
C1710      C1715   1.447       .  S
C1711      C1964   1.443       .  A
C1711      C1718   1.445       .  S
C1712      C1963   1.443   1_554  A
C1712      C1713   1.459       .  A
C1713      C1714   1.420       .  A
C1713      C1716   1.454       .  S
C1714      C1717   1.451       .  S
C1715      N1722   1.155       .  T
C1716      N1721   1.157       .  T
C1717      N1719   1.156       .  T
C1718      N1720   1.157       .  T
C1723      C1765   1.617       .  S
C1723      C1724   1.451       .  A
C1723      C1728   1.419       .  A
C1724      C1725   1.428       .  A
C1724      C1729   1.445       .  S
C1725      C1726   1.413       .  A
C1725      C1732   1.446       .  S
C1726      C1727   1.410       .  A
C1727      C1728   1.401       .  A
C1727      C1730   1.441       .  S
C1728      C1731   1.447       .  S
C1729      N1736   1.156       .  T
C1730      N1735   1.156       .  T
C1731      N1733   1.158       .  T
C1737      C1738   1.410       .  A
C1737      C1994   1.410       .  A
C1738      C1739   1.422       .  A
C1738      C1743   1.448       .  S
C1739      C1740   1.438       .  A
C1739      C1746   1.450       .  S
C1740      C1765   1.598       .  S
C1740      C1993   1.447       .  A
C1741      C1992   1.447       .  A
C1741      C1742   1.406       .  A
C1741      C1744   1.454       .  S
C1742      C1989   1.410   1_554  A
C1742      C1745   1.459       .  S
C1743      N1750   1.156       .  T
C1744      N1749   1.158       .  T
C1745      N1747   1.157       .  T
C1746      N1748   1.156       .  T
C1751      C1752   1.426       .  A
C1751      C1756   1.425       .  A
C1752      C1753   1.426       .  A
C1752      C1757   1.449       .  S
C1753      C1754   1.456       .  A
C1753      C1760   1.450       .  S
C1754      C1755   1.405       .  A
C1755      C1756   1.398       .  A
C1755      C1758   1.450       .  S
C1756      C1759   1.444       .  S
C1757      N1764   1.157       .  T
C1758      N1763   1.158       .  T
C1759      N1761   1.156       .  T
C1760      N1762   1.158       .  T
C1765      C1964   1.628       .  S
C1765      C2003   1.589       .  S
C1766      C1919   1.654       .  S
C1766      C1933   1.595       .  S
C1766      C1947   1.629       .  S
C1766      C2006   1.632       .  S
C1767      C1866   1.616       .  S
C1767      C1877   1.604       .  S
C1767      C1891   1.596       .  S
C1767      C1905   1.612       .  S
C1768      C1821   1.592       .  S
C1768      C1835   1.629       .  S
C1768      C1849   1.634       .  S
C1768      C1908   1.606       .  S
C1769      O1771   1.265       .  A
C1769      C1989   1.504       .  S
Tb1770     O1781   2.407       .  S
Tb1770     O1794   2.363       .  S
Tb1770     O1791   2.329       .  S
O1771     Tb1775   2.381       .  S
O1772      C1783   1.265       .  A
C1773      O1778   1.271       .  A
C1773      O1794   1.273       .  A
C1773      C1863   1.515       .  S
O1774      C1790   1.261       .  A
Tb1775     O1787   2.370       .  S
O1777      C1780   1.267       .  A
O1779      C1789   1.280   1_655  A
C1780      O1793   1.274       .  A
C1780      C1978   1.511       .  S
C1782      O1791   1.262       .  A
C1783      C1894   1.477       .  S
O1787      C1788   1.278   1_655  A
C1788      C1815   1.517       .  S
C1789      C1814   1.518       .  S
C1790      C1961   1.498       .  S
C1795      O1810   1.262       .  A
C1795      O1797   1.260       .  A
C1795      C1950   1.513       .  S
Tb1796     O1812   2.401       .  S
Tb1796     O1807   2.388       .  S
Tb1796     O1800   2.353       .  S
Tb1796     O1820   2.358       .  S
Tb1796     O1817   2.424       .  S
O1797     Tb1801   2.372       .  S
O1798      C1809   1.263       .  A
C1799      O1804   1.271       .  A
C1799      O1820   1.270       .  A
C1799      C1824   1.491       .  S
O1800      C1816   1.260       .  A
Tb1801     O1805   2.388       .  S
Tb1801     O1810   2.414       .  S
Tb1801     O1813   2.400       .  S
O1803      C1806   1.272       .  A
O1805      C1815   1.283   1_655  A
C1806      O1819   1.276       .  A
C1806      C1936   1.518       .  S
C1808      O1817   1.261       .  A
C1809      O1811   1.259       .  A
C1809      C1852   1.508       .  S
O1813      C1814   1.284   1_655  A
C1816      C1922   1.506       .  S
C1821      C1822   1.436       .  A
C1821      C1826   1.423       .  A
C1822      C1823   1.430       .  A
C1822      C1827   1.446       .  S
C1823      C1824   1.413       .  A
C1823      C1830   1.445       .  S
C1824      C1825   1.402       .  A
C1825      C1826   1.395       .  A
C1825      C1828   1.452       .  S
C1826      C1829   1.446       .  S
C1827      N1834   1.157       .  T
C1828      N1833   1.157       .  T
C1829      N1831   1.157       .  T
C1830      N1832   1.157       .  T
C1835      C1836   1.439       .  A
C1835      C1840   1.463       .  A
C1836      C1837   1.403       .  A
C1836      C1841   1.436       .  S
C1837      C1838   1.374       .  A
C1837      C1844   1.441       .  S
C1838      C1839   1.396       .  A
C1839      C1840   1.442       .  A
C1839      C1842   1.440       .  S
C1840      C1843   1.445       .  S
C1841      N1848   1.154       .  T
C1842      N1847   1.154       .  T
C1843      N1845   1.158       .  T
C1849      C1850   1.408       .  A
C1849      C1854   1.462       .  A
C1850      C1851   1.399       .  A
C1850      C1855   1.439       .  S
C1851      C1852   1.390       .  A
C1851      C1858   1.435       .  S
C1852      C1853   1.409       .  A
C1853      C1854   1.445       .  A
C1853      C1856   1.441       .  S
C1854      C1857   1.447       .  S
C1855      N1862   1.155       .  T
C1856      N1861   1.156       .  T
C1857      N1859   1.158       .  T
C1863      C1864   1.413       .  A
C1863      C1868   1.406       .  A
C1864      C1865   1.420       .  A
C1864      C1869   1.432       .  S
C1865      C1866   1.444       .  A
C1865      C1872   1.454       .  S
C1866      C1867   1.433       .  A
C1867      C1868   1.402       .  A
C1867      C1870   1.450   1_556  S
C1868      C1871   1.440       .  S
C1870      N1875   1.158       .  T
C1871      N1873   1.155       .  T
C1877      C1878   1.443       .  A
C1877      C1882   1.427       .  A
C1878      C1879   1.422       .  A
C1879      C1880   1.409       .  A
C1880      C1881   1.404       .  A
C1881      C1882   1.403       .  A
C1881      C1884   1.447       .  S
C1882      C1885   1.438       .  S
C1883      N1890   1.154       .  T
C1884      N1889   1.157       .  T
C1885      N1887   1.155       .  T
C1886      N1888   1.154       .  T
C1891      C1892   1.454       .  A
C1891      C1896   1.439       .  A
C1892      C1893   1.408       .  A
C1892      C1897   1.450       .  S
C1893      C1894   1.396       .  A
C1893      C1900   1.455       .  S
C1895      C1898   1.454       .  S
C1897      N1904   1.154       .  T
C1899      N1901   1.157       .  T
C1900      N1902   1.157       .  T
C1905      C1906   1.451       .  A
C1905      C1910   1.415       .  A
C1906      C1907   1.412       .  A
C1906      C1911   1.451       .  S
C1907      C1908   1.427       .  A
C1907      C1914   1.432       .  S
C1908      C1909   1.423       .  A
C1909      C1910   1.396       .  A
C1909      C1912   1.426       .  S
C1910      C1913   1.429       .  S
C1911      N1918   1.158       .  T
C1912      N1917   1.151       .  T
C1913      N1915   1.154       .  T
C1914      N1916   1.154       .  T
C1919      C1920   1.468       .  A
C1919      C1924   1.452       .  A
C1920      C1921   1.395       .  A
C1920      C1925   1.449       .  S
C1921      C1922   1.370       .  A
C1922      C1923   1.401       .  A
C1923      C1924   1.442       .  A
C1923      C1926   1.437       .  S
C1924      C1927   1.445       .  S
C1925      N1932   1.158       .  T
C1926      N1931   1.154       .  T
C1927      N1929   1.157       .  T
C1928      N1930   1.152   1_545  T
C1933      C1934   1.435       .  A
C1933      C1938   1.440       .  A
C1934      C1935   1.416       .  A
C1934      C1939   1.443       .  S
C1935      C1936   1.405       .  A
C1935      C1942   1.440       .  S
C1936      C1937   1.398       .  A
C1937      C1938   1.406       .  A
C1937      C1940   1.434       .  S
C1938      C1941   1.452       .  S
C1939      N1946   1.155       .  T
C1941      N1943   1.157       .  T
C1942      N1944   1.154       .  T
C1947      C1948   1.459       .  A
C1947      C1952   1.382       .  A
C1948      C1949   1.459       .  A
C1948      C1953   1.448       .  S
C1949      C1950   1.436       .  A
C1949      C1956   1.443       .  S
C1950      C1951   1.406       .  A
C1951      C1952   1.389       .  A
C1951      C1954   1.443       .  S
C1952      C1955   1.464       .  S
C1953      N1960   1.157       .  T
C1955      N1957   1.157       .  T
C1961      C1966   1.401       .  A
C1962      C1963   1.409       .  A
C1962      C1967   1.447       .  S
C1963      C1970   1.445       .  S
C1964      C1965   1.459       .  A
C1965      C1966   1.420       .  A
C1965      C1968   1.454       .  S
C1966      C1969   1.451       .  S
C1967      N1974   1.155       .  T
C1968      N1973   1.157       .  T
C1969      N1971   1.156       .  T
C1970      N1972   1.157       .  T
C1975      C1976   1.451       .  A
C1975      C1980   1.419       .  A
C1976      C1977   1.428       .  A
C1976      C1981   1.445       .  S
C1977      C1978   1.413       .  A
C1977      C1984   1.446       .  S
C1978      C1979   1.410       .  A
C1979      C1980   1.401       .  A
C1979      C1982   1.441   1_556  S
C1980      C1983   1.447       .  S
C1981      N1988   1.156       .  T
C1982      N1987   1.156       .  T
C1983      N1985   1.158       .  T
C1989      C1990   1.410       .  A
C1990      C1991   1.422       .  A
C1990      C1995   1.448       .  S
C1991      C1992   1.438   1_556  A
C1991      C1998   1.450       .  S
C1993      C1994   1.406       .  A
C1993      C1996   1.454       .  S
C1994      C1997   1.459       .  S
C1995      N2002   1.156       .  T
C1996      N2001   1.158       .  T
C1997      N1999   1.157       .  T
C1998      N2000   1.156       .  T
C2003      C2004   1.426       .  A
C2003      C2008   1.425       .  A
C2004      C2005   1.426       .  A
C2004      C2009   1.449       .  S
C2005      C2006   1.456       .  A
C2005      C2012   1.450       .  S
C2006      C2007   1.405       .  A
C2007      C2008   1.398       .  A
C2007      C2010   1.450       .  S
C2008      C2011   1.444       .  S
C2009      N2016   1.157       .  T
C2010      N2015   1.158       .  T
C2011      N2013   1.156       .  T
C2012      N2014   1.158       .  T
