geometry optimzed in LAMMPS
_audit_creation_date              2020-11-30 
_audit_creation_method            'lammps2cif' 
_symmetry_space_group_name_H-M    'P1' 
_symmetry_Int_Tables_number       1 
_symmetry_cell_setting            triclinic 
loop_ 
_symmetry_equiv_pos_as_xyz 
  x,y,z 
_cell_length_a                    45.86824409 
_cell_length_b                    45.518039375541385 
_cell_length_c                    44.97670392850723 
_cell_angle_alpha                 90.23546708565307 
_cell_angle_beta                  89.55034479771142 
_cell_angle_gamma                 90.02136829432166 
loop_ 
_atom_site_label 
_atom_site_type_symbol 
_atom_site_fract_x 
_atom_site_fract_y 
_atom_site_fract_z 
_atom_site_charge 
C1          C  0.56101890  0.33478966  0.01678610     0.79800
N2          N  0.57417217  0.33005674  0.48989414    -0.78500
C3          C  0.60187035  0.31936223  0.48839627     0.82200
N4          N  0.61642404  0.31375748  0.51390814    -0.78500
C5          C  0.60384507  0.31905754  0.04080911     0.82300
N6          N  0.57614120  0.32946509  0.04208371    -0.80200
O7          O  0.73816392  0.32073220  0.29691462    -0.82300
C8          C  0.84613561  0.27442645  0.27069691     0.97100
O9          O  0.83149628  0.28141027  0.29348216    -0.71400
O10         O  0.79421596  0.31397135  0.32204338    -0.75000
Al11       Al  0.79049476  0.27906000  0.29898266     1.49000
C12         C  0.79822837  0.34057985  0.31533570     0.92300
O13         O  0.78434884  0.34860566  0.23190873    -0.81200
O14         O  0.76412578  0.29253288  0.20759388    -0.74700
Al15       Al  0.76364152  0.33085008  0.26445875     1.90100
O16         O  0.81783945  0.31643668  0.22010712    -0.73800
O17         O  0.77886796  0.24540219  0.23649302    -0.73700
O18         O  0.83346074  0.26842962  0.24658809    -0.79300
O19         O  0.78866112  0.23963926  0.28359303    -0.77500
O20         O  0.78365939  0.29718999  0.26463507    -1.13700
O21         O  0.75004362  0.27562582  0.30876741    -0.72900
C22         C  0.73288621  0.29728628  0.31099333     0.97900
C23         C  0.80736867  0.34185548  0.21791573     0.94300
Al24       Al  0.79730880  0.28196883  0.23067958     1.55600
O25         O  0.79054255  0.35007957  0.29025721    -0.77500
C26         C  0.78109060  0.22905073  0.25882774     0.98400
C27         C  0.73941204  0.30331000  0.21383531     0.93300
O28         O  0.73479947  0.31560722  0.23864093    -0.82800
C29         C  0.85735601  0.50891694  0.01511492     0.79800
N30         N  0.85780750  0.49316504  0.48941692    -0.78500
C31         C  0.85896498  0.46338994  0.48972132     0.82200
N32         N  0.85975311  0.44925903  0.01631304    -0.78500
C33         C  0.85917109  0.46468085  0.04227540     0.82300
N34         N  0.85760628  0.49448487  0.04152432    -0.80200
C35         C  0.75645225  0.00961156  0.24181368     0.79800
N36         N  0.75667954  0.99365635  0.26730645    -0.78500
C37         C  0.75399884  0.96397169  0.26653538     0.82200
N38         N  0.75097342  0.95025251  0.23992524    -0.78500
C39         C  0.75098312  0.96577059  0.21426342     0.82300
N40         N  0.75398676  0.99545926  0.21522844    -0.80200
O41         O  0.80467816  0.83996719  0.02452001    -0.82300
C42         C  0.80046119  0.72121418  0.99772929     0.97100
O43         O  0.80122377  0.73751470  0.02029512    -0.71400
O44         O  0.81975827  0.78312953  0.04882022    -0.75000
Al45       Al  0.78565861  0.77514539  0.02589740     1.49000
C46         C  0.84542309  0.79126524  0.04251351     0.92300
O47         O  0.84774339  0.80850708  0.45948186    -0.81200
O48         O  0.78935039  0.80584882  0.43490110    -0.74700
Al49       Al  0.82346731  0.82045258  0.99191661     1.90100
O50         O  0.83177672  0.76512829  0.44629659    -0.73800
O51         O  0.75085321  0.77442387  0.46326440    -0.73700
O52         O  0.79310876  0.73137093  0.47278659    -0.79300
O53         O  0.74828968  0.76419090  0.01060166    -0.77500
O54         O  0.80039542  0.78867302  0.99170120    -1.13700
O55         O  0.76820443  0.81130071  0.03627784    -0.72900
C56         C  0.78136895  0.83539977  0.03881809     0.97900
C57         C  0.85073162  0.78516145  0.44458594     0.94300
Al58       Al  0.79191883  0.77066712  0.45738488     1.55600
O59         O  0.85113027  0.80287386  0.01768606    -0.77500
C60         C  0.73584414  0.76892821  0.98615704     0.98400
C61         C  0.78954450  0.83290708  0.44123479     0.93300
O62         O  0.79857329  0.84176681  0.46617016    -0.82800
C63         C  0.02200615  0.82096247  0.24005254     0.79800
N64         N  0.00939075  0.81498696  0.26685833    -0.78500
C65         C  0.98299490  0.80151910  0.26840969     0.82200
N66         N  0.96903494  0.79438074  0.24288719    -0.78500
C67         C  0.98099068  0.80069406  0.21594206     0.82300
N68         N  0.00755922  0.81394186  0.21465615    -0.80200
C69         C  0.33705321  0.13585085  0.25937805     0.79800
N70         N  0.33843498  0.14997652  0.28609253    -0.78500
C71         C  0.34060246  0.17983292  0.28720724     0.82200
N72         N  0.34079644  0.19537619  0.26148639    -0.78500
C73         C  0.33898733  0.18154560  0.23478917     0.82300
N74         N  0.33716758  0.15188421  0.23400940    -0.80200
O75         O  0.23208948  0.33869627  0.48455018    -0.82300
C76         C  0.34520515  0.37422301  0.01833439     0.97100
O77         O  0.33336208  0.38019986  0.49382193    -0.71400
O78         O  0.31488761  0.33416027  0.46513161    -0.75000
Al79       Al  0.29636695  0.36934951  0.47749435     1.49000
C80         C  0.30290765  0.30946453  0.46232775     0.92300
O81         O  0.28607168  0.30008473  0.03473085    -0.81200
O82         O  0.24890392  0.37532265  0.05562063    -0.74700
Al83       Al  0.26018688  0.32123317  0.00968989     1.90100
O84         O  0.29185232  0.33547951  0.06739490    -0.73800
O85         O  0.28759590  0.41080247  0.03223978    -0.73700
O86         O  0.32980153  0.36814070  0.04076320    -0.79300
O87         O  0.27975782  0.40655856  0.48460358    -0.77500
O88         O  0.28185561  0.35393376  0.01096932    -1.13700
O89         O  0.26254648  0.36140317  0.45444043    -0.72900
C90         C  0.23730181  0.35180329  0.46037971     0.97900
C91         C  0.29399078  0.30875670  0.06012332     0.94300
Al92       Al  0.28899446  0.37106726  0.04591371     1.55600
O93         O  0.27985280  0.30361725  0.47656633    -0.77500
C94         C  0.28015769  0.42194506  0.00783403     0.98400
C95         C  0.23117497  0.35423537  0.05772318     0.93300
O96         O  0.23525881  0.33103936  0.04275681    -0.82800
C97         C  0.06032304  0.31927257  0.26373734     0.79800
N98         N  0.07323144  0.32420664  0.23679010    -0.78500
C99         C  0.10031681  0.33627628  0.23522140     0.82200
N100        N  0.11454073  0.34299966  0.26064620    -0.78500
C101        C  0.10231993  0.33757991  0.28760116     0.82300
N102        N  0.07512576  0.32580380  0.28905662    -0.80200
C103        C  0.23058470  0.63687621  0.99076016     0.79800
N104        N  0.22931142  0.65316758  0.01599723    -0.78500
C105        C  0.22621535  0.68268671  0.01522004     0.82200
N106        N  0.22427344  0.69622227  0.98846702    -0.78500
C107        C  0.22548986  0.68043519  0.46268207     0.82300
N108        N  0.22895071  0.65065341  0.46394641    -0.80200
O109        O  0.28558605  0.79733947  0.21480402    -0.82300
C110        C  0.30086019  0.91819736  0.24383114     0.97100
O111        O  0.29278059  0.90739299  0.21936311    -0.71400
O112        O  0.32775720  0.86921123  0.19272256    -0.75000
Al113      Al  0.28794227  0.86813546  0.20481519     1.49000
C114        C  0.34364191  0.84671460  0.18977143     0.92300
O115        O  0.34469142  0.83036855  0.26361792    -0.81200
O116        O  0.26256570  0.83241309  0.28595599    -0.74700
Al117      Al  0.31422088  0.81574791  0.23911283     1.90100
O118        O  0.31723546  0.85530937  0.29502710    -0.73800
O119        O  0.24665209  0.87999020  0.25913025    -0.73700
O120        O  0.30197886  0.90246943  0.26668205    -0.79300
O121        O  0.24742775  0.86820737  0.21193450    -0.77500
O122        O  0.29531887  0.85016114  0.23922729    -1.13700
O123        O  0.28115087  0.83322239  0.18279239    -0.72900
C124        C  0.27681438  0.80685307  0.19009715     0.97900
C125        C  0.34138891  0.84361745  0.28817723     0.94300
Al126      Al  0.28327197  0.86618887  0.27359376     1.55600
O127        O  0.33873611  0.82408403  0.20522415    -0.77500
C128        C  0.23343356  0.87484639  0.23515162     0.98400
C129        C  0.27219915  0.80665811  0.28781304     0.93300
O130        O  0.29422945  0.79898079  0.27271109    -0.82800
C131        C  0.51931339  0.80753693  0.98506433     0.79800
N132        N  0.50614440  0.81475426  0.45899456    -0.78500
C133        C  0.47854152  0.82560207  0.45896426     0.82200
N134        N  0.46417453  0.82906924  0.98515082    -0.78500
C135        C  0.47655118  0.82184216  0.01136112     0.82300
N136        N  0.50426191  0.81097117  0.01125106    -0.80200
C137        C  0.36535254  0.84471527  0.31006131    -0.01800
C138        C  0.39106710  0.82857688  0.30580359    -0.09800
C139        C  0.41222061  0.82742888  0.32805750    -0.18600
C140        C  0.40814530  0.84232753  0.35548204     0.03800
C141        C  0.38239744  0.85940200  0.35916959     0.18000
C142        C  0.36161468  0.86063834  0.33655986    -0.20000
C143        C  0.37695626  0.87444872  0.38580470    -0.21300
C144        C  0.39599139  0.87201055  0.40945428    -0.19800
C145        C  0.42103797  0.85463843  0.40696588     0.19400
C146        C  0.42800349  0.84013142  0.37977504     0.01500
C147        C  0.45406183  0.82343982  0.37854416    -0.14600
C148        C  0.47135537  0.81982754  0.40382289    -0.12300
C149        C  0.46323763  0.83270877  0.43098641     0.01000
C150        C  0.43859622  0.85090955  0.43199800    -0.24500
H151        H  0.39454108  0.81613596  0.28550477     0.09000
H152        H  0.43115219  0.81411460  0.32344404     0.12600
H153        H  0.34191823  0.87340199  0.34009956     0.11300
H154        H  0.35743179  0.88761298  0.38864407     0.12500
H155        H  0.39075030  0.88331025  0.43007648     0.11500
H156        H  0.46129167  0.81239087  0.35857819     0.08600
H157        H  0.49048043  0.80593318  0.40236372     0.11900
H158        H  0.43243544  0.86156487  0.45272770     0.13800
C159        C  0.45932843  0.82612646  0.03932618    -0.01800
C160        C  0.46769022  0.81354393  0.06635160    -0.09800
C161        C  0.45040840  0.81701989  0.09207025    -0.18600
C162        C  0.42416677  0.83349125  0.09162186     0.03800
C163        C  0.41617354  0.84661813  0.06425995     0.18000
C164        C  0.43350266  0.84272049  0.03869539    -0.20000
C165        C  0.39083933  0.86361902  0.06240754    -0.21300
C166        C  0.37320459  0.86809914  0.08723648    -0.19800
C167        C  0.38014722  0.85529621  0.11449131     0.19400
C168        C  0.40551236  0.83749295  0.11711933     0.01500
C169        C  0.41061213  0.82409178  0.14496438    -0.14600
C170        C  0.39105987  0.82779684  0.16883576    -0.12300
C171        C  0.36632289  0.84562941  0.16608962     0.01000
C172        C  0.36131825  0.85963988  0.13893793    -0.24500
H173        H  0.48747193  0.80064079  0.06757463     0.09000
H174        H  0.45818706  0.80667826  0.11200847     0.12600
H175        H  0.42673349  0.85288960  0.01811345     0.11300
H176        H  0.38464549  0.87365218  0.04157194     0.12500
H177        H  0.35377799  0.88143799  0.08500646     0.11500
H178        H  0.42908504  0.80998981  0.14869926     0.08600
H179        H  0.39513332  0.81639921  0.18948614     0.11900
H180        H  0.34180941  0.87282049  0.13634851     0.13800
C181        C  0.25872057  0.78592384  0.30925180    -0.01800
C182        C  0.26376297  0.75564678  0.30696325    -0.09800
C183        C  0.25437567  0.73649804  0.32936273    -0.18600
C184        C  0.24025351  0.74722143  0.35532227     0.03800
C185        C  0.23409842  0.77783301  0.35686707     0.18000
C186        C  0.24284252  0.79665748  0.33375618    -0.20000
C187        C  0.22055437  0.78977670  0.38214228    -0.21300
C188        C  0.21448474  0.77231672  0.40668945    -0.19800
C189        C  0.22148151  0.74238934  0.40645559     0.19400
C190        C  0.23346366  0.72910415  0.38044267     0.01500
C191        C  0.23922457  0.69855143  0.38129555    -0.14600
C192        C  0.23534925  0.68246398  0.40753343    -0.12300
C193        C  0.22552673  0.69619096  0.43372266     0.01000
C194        C  0.21763132  0.72596853  0.43258059    -0.24500
H195        H  0.27564614  0.74677715  0.28805416     0.09000
H196        H  0.25951437  0.71359097  0.32624906     0.12600
H197        H  0.23881885  0.82006452  0.33578022     0.11300
H198        H  0.21559290  0.81303510  0.38337363     0.12500
H199        H  0.20497334  0.78248525  0.42632095     0.11500
H200        H  0.24741725  0.68661053  0.36225657     0.08600
H201        H  0.24116858  0.65940835  0.40754470     0.11900
H202        H  0.20935672  0.73678659  0.45244262     0.13800
C203        C  0.26237761  0.78723677  0.16850204    -0.01800
C204        C  0.26305324  0.75670481  0.17175575    -0.09800
C205        C  0.25332355  0.73835774  0.14889146    -0.18600
C206        C  0.24289183  0.75017470  0.12187515     0.03800
C207        C  0.24005818  0.78115923  0.11983791     0.18000
C208        C  0.24954534  0.79924373  0.14308076    -0.20000
C209        C  0.22905373  0.79405470  0.09405995    -0.21300
C210        C  0.22237249  0.77691466  0.06942520    -0.19800
C211        C  0.22667367  0.74650551  0.06996267     0.19400
C212        C  0.23634137  0.73259059  0.09641250     0.01500
C213        C  0.24036000  0.70185348  0.09573668    -0.14600
C214        C  0.23613244  0.68585224  0.06965402    -0.12300
C215        C  0.22769821  0.69976897  0.04329863     0.01000
C216        C  0.22236270  0.73007114  0.04383841    -0.24500
H217        H  0.27222578  0.74692494  0.19150493     0.09000
H218        H  0.25505600  0.71508369  0.15272142     0.12600
H219        H  0.24811181  0.82290393  0.14071292     0.11300
H220        H  0.22645117  0.81767355  0.09260657     0.12500
H221        H  0.21468156  0.78763498  0.04949445     0.11500
H222        H  0.24752980  0.68957871  0.11474903     0.08600
H223        H  0.24036266  0.66245077  0.07005464     0.11900
H224        H  0.21562142  0.74107486  0.02369183     0.13800
C225        C  0.27180539  0.45329054  0.00628725    -0.01800
C226        C  0.26427003  0.46897664  0.03206251    -0.09800
C227        C  0.25613268  0.49851666  0.03051354    -0.18600
C228        C  0.25557336  0.51347948  0.50295452     0.03800
C229        C  0.26291216  0.49729065  0.47687916     0.18000
C230        C  0.27078665  0.46756888  0.47875921    -0.20000
C231        C  0.26252138  0.51086453  0.44902021    -0.21300
C232        C  0.25521044  0.54036839  0.44641927    -0.19800
C233        C  0.24823819  0.55711613  0.47162854     0.19400
C234        C  0.24826279  0.54389554  0.50027744     0.01500
C235        C  0.24138011  0.56182549  0.02501316    -0.14600
C236        C  0.23516795  0.59155675  0.02150874    -0.12300
C237        C  0.23546578  0.60470617  0.99329832     0.01000
C238        C  0.24170547  0.58716529  0.46837348    -0.24500
H239        H  0.26441812  0.45829692  0.05354609     0.09000
H240        H  0.25045803  0.50897390  0.05128973     0.12600
H241        H  0.27647028  0.45557854  0.45865215     0.11300
H242        H  0.26804572  0.49858508  0.42906298     0.12500
H243        H  0.25526814  0.55022626  0.42452629     0.11500
H244        H  0.24093919  0.55368039  0.04746227     0.08600
H245        H  0.23036347  0.60435942  0.04129624     0.11900
H246        H  0.24212080  0.59699165  0.44645845     0.13800
C247        C  0.11476036  0.34220933  0.20641618    -0.01800
C248        C  0.13212083  0.36731577  0.20336746    -0.09800
C249        C  0.14856370  0.37204822  0.17763748    -0.18600
C250        C  0.14878886  0.35125882  0.15419822     0.03800
C251        C  0.13078710  0.32593682  0.15722227     0.18000
C252        C  0.11352459  0.32195087  0.18293899    -0.20000
C253        C  0.13100837  0.30422346  0.13508976    -0.21300
C254        C  0.14948494  0.30657790  0.11051865    -0.19800
C255        C  0.16784519  0.33095451  0.10718367     0.19400
C256        C  0.16715256  0.35406656  0.12852367     0.01500
C257        C  0.18549494  0.37859904  0.12361755    -0.14600
C258        C  0.20504458  0.37923231  0.09969686    -0.12300
C259        C  0.20695627  0.35561261  0.07972688     0.01000
C260        C  0.18761459  0.33191027  0.08313125    -0.24500
H261        H  0.13328728  0.38328212  0.22125884     0.09000
H262        H  0.16160730  0.39172192  0.17727761     0.12600
H263        H  0.10037090  0.30229281  0.18538296     0.11300
H264        H  0.11738118  0.28487530  0.13719933     0.12500
H265        H  0.14972656  0.28897351  0.09421797     0.11500
H266        H  0.18566318  0.39747212  0.13813428     0.08600
H267        H  0.21950490  0.39793364  0.09750981     0.11900
H268        H  0.18868700  0.31357599  0.06769114     0.13800
C269        C  0.11912390  0.34389696  0.31482631    -0.01800
C270        C  0.14194408  0.36432733  0.31387108    -0.09800
C271        C  0.15970232  0.36890326  0.33844419    -0.18600
C272        C  0.15553273  0.35271578  0.36489067     0.03800
C273        C  0.13194880  0.33242363  0.36601401     0.18000
C274        C  0.11380934  0.32848943  0.34123818    -0.20000
C275        C  0.12716818  0.31552228  0.39152018    -0.21300
C276        C  0.14586130  0.31762924  0.41562809    -0.19800
C277        C  0.16969860  0.33681797  0.41490264     0.19400
C278        C  0.17452782  0.35513450  0.38979610     0.01500
C279        C  0.19871154  0.37440099  0.39036654    -0.14600
C280        C  0.21827854  0.37403168  0.41390048    -0.12300
C281        C  0.21425438  0.35485811  0.43785465     0.01000
C282        C  0.18935814  0.33702806  0.43871009    -0.24500
H283        H  0.14633998  0.37672814  0.29381960     0.09000
H284        H  0.17691020  0.38478331  0.33569498     0.12600
H285        H  0.09629710  0.31249953  0.34212557     0.11300
H286        H  0.10921088  0.30006973  0.39257929     0.12500
H287        H  0.14195793  0.30373172  0.43476165     0.11500
H288        H  0.20353773  0.38959308  0.37270715     0.08600
H289        H  0.23707788  0.38843202  0.41298257     0.11900
H290        H  0.18599296  0.32222220  0.45725114     0.13800
C291        C  0.30498422  0.28803663  0.08256584    -0.01800
C292        C  0.30160009  0.25761175  0.07952334    -0.09800
C293        C  0.30938739  0.23879345  0.10270628    -0.18600
C294        C  0.32056528  0.25006412  0.12976321     0.03800
C295        C  0.32442077  0.28093202  0.13223679     0.18000
C296        C  0.31718085  0.29932878  0.10867623    -0.20000
C297        C  0.33450569  0.29355886  0.15861386    -0.21300
C298        C  0.33994135  0.27624647  0.18320434    -0.19800
C299        C  0.33606825  0.24583123  0.18175818     0.19400
C300        C  0.32713042  0.23212736  0.15482377     0.01500
C301        C  0.32474553  0.20118113  0.15441845    -0.14600
C302        C  0.32954367  0.18478831  0.18009656    -0.12300
C303        C  0.33680717  0.19863727  0.20697468     0.01000
C304        C  0.34062632  0.22913271  0.20738845    -0.24500
H305        H  0.29212649  0.24839745  0.05956520     0.09000
H306        H  0.30555306  0.21568979  0.09915693     0.12600
H307        H  0.32014963  0.32284892  0.11120433     0.11300
H308        H  0.33746125  0.31712265  0.16050553     0.12500
H309        H  0.34698771  0.28676327  0.20358697     0.11500
H310        H  0.31901758  0.18904379  0.13468667     0.08600
H311        H  0.32682670  0.16117436  0.17897950     0.11900
H312        H  0.34671367  0.24008062  0.22788104     0.13800
C313        C  0.31466242  0.28772914  0.44084269    -0.01800
C314        C  0.30498128  0.25857806  0.44173204    -0.09800
C315        C  0.31229027  0.23881891  0.41909653    -0.18600
C316        C  0.32915736  0.24780151  0.39430483     0.03800
C317        C  0.33990169  0.27713554  0.39406019     0.18000
C318        C  0.33304289  0.29657386  0.41746892    -0.20000
C319        C  0.35617943  0.28732911  0.36974919    -0.21300
C320        C  0.36060405  0.26956297  0.34489709    -0.19800
C321        C  0.34934300  0.24097997  0.34399736     0.19400
C322        C  0.33445108  0.22925477  0.36910813     0.01500
C323        C  0.32466087  0.19979257  0.36744210    -0.14600
C324        C  0.32782472  0.18339583  0.34128693    -0.12300
C325        C  0.34072272  0.19576568  0.31597424     0.01000
C326        C  0.35211567  0.22433551  0.31776164    -0.24500
H327        H  0.29093273  0.25115934  0.45966578     0.09000
H328        H  0.30338056  0.21702220  0.42111103     0.12600
H329        H  0.34055290  0.31915034  0.41651032     0.11300
H330        H  0.36463246  0.30957014  0.36948898     0.12500
H331        H  0.37239336  0.27846223  0.32599189     0.11500
H332        H  0.31408029  0.18889792  0.38579602     0.08600
H333        H  0.31910994  0.16128561  0.34057176     0.11900
H334        H  0.36267241  0.23391098  0.29843575     0.13800
C335        C  0.30845946  0.94973598  0.24581545    -0.01800
C336        C  0.31488374  0.96560986  0.22002580    -0.09800
C337        C  0.32107225  0.99557710  0.22144741    -0.18600
C338        C  0.32067901  0.01089405  0.24890648     0.03800
C339        C  0.31458693  0.99461125  0.27512187     0.18000
C340        C  0.30862566  0.96434374  0.27337002    -0.20000
C341        C  0.31428748  0.00867311  0.30288659    -0.21300
C342        C  0.31975454  0.03867705  0.30518933    -0.19800
C343        C  0.32530140  0.05545975  0.27975167     0.19400
C344        C  0.32583703  0.04177329  0.25124174     0.01500
C345        C  0.33100213  0.05968683  0.22620766    -0.14600
C346        C  0.33504103  0.08983004  0.22926088    -0.12300
C347        C  0.33423919  0.10343158  0.25729175     0.01000
C348        C  0.32974746  0.08597341  0.28256217    -0.24500
H349        H  0.31518879  0.95477781  0.19853040     0.09000
H350        H  0.32599106  0.00604639  0.20058614     0.12600
H351        H  0.30358908  0.95224228  0.29348445     0.11300
H352        H  0.30971348  0.99638376  0.32297918     0.12500
H353        H  0.31927855  0.04889208  0.32699920     0.11500
H354        H  0.33163930  0.05124372  0.20382242     0.08600
H355        H  0.33857349  0.10256472  0.20926463     0.11900
H356        H  0.32902035  0.09617180  0.30438126     0.13800
C357        C  0.05157452  0.83421780  0.23869092    -0.01800
C358        C  0.06418373  0.84611056  0.26434915    -0.09800
C359        C  0.09280909  0.85650438  0.26399693    -0.18600
C360        C  0.11010731  0.85503642  0.23787407     0.03800
C361        C  0.09691906  0.84396041  0.21159331     0.18000
C362        C  0.06791535  0.83392886  0.21217352    -0.20000
C363        C  0.11300476  0.84217738  0.18506954    -0.21300
C364        C  0.14224698  0.85020053  0.18428331    -0.19800
C365        C  0.15614584  0.86019311  0.21000872     0.19400
C366        C  0.14019436  0.86326648  0.23707904     0.01500
C367        C  0.15535704  0.87344160  0.26238879    -0.14600
C368        C  0.18530302  0.87878566  0.26122872    -0.12300
C369        C  0.20116210  0.87446341  0.23483851     0.01000
C370        C  0.18621699  0.86600881  0.20907458    -0.24500
H371        H  0.05198207  0.84709187  0.28504389     0.09000
H372        H  0.10087689  0.86507294  0.28472083     0.12600
H373        H  0.05842842  0.82492304  0.19209935     0.11300
H374        H  0.10305679  0.83393913  0.16490564     0.12500
H375        H  0.15424976  0.84793853  0.16354322     0.11500
H376        H  0.14491699  0.87668610  0.28368202     0.08600
H377        H  0.19625843  0.88527182  0.28147185     0.11900
H378        H  0.19823593  0.86252736  0.18849780     0.13800
C379        C  0.70334662  0.76912345  0.98494883    -0.01800
C380        C  0.68680932  0.76240123  0.01041521    -0.09800
C381        C  0.65648930  0.76561623  0.01076632    -0.18600
C382        C  0.64140023  0.77593513  0.98559043     0.03800
C383        C  0.65801600  0.78135809  0.95931518     0.18000
C384        C  0.68859674  0.77796735  0.45922500    -0.20000
C385        C  0.64407076  0.79082272  0.43348084    -0.21300
C386        C  0.61412908  0.79583155  0.43337054    -0.19800
C387        C  0.59734226  0.79196962  0.95921453     0.19400
C388        C  0.61064418  0.78173693  0.98567471     0.01500
C389        C  0.59269993  0.77876979  0.01124571    -0.14600
C390        C  0.56317634  0.78656356  0.01084112    -0.12300
C391        C  0.55023546  0.79723607  0.98487734     0.01000
C392        C  0.56747297  0.79917960  0.45895285    -0.24500
H393        H  0.69743461  0.75519878  0.03052593     0.09000
H394        H  0.64549720  0.76019571  0.03130827     0.12600
H395        H  0.70099846  0.78310570  0.43928910     0.11300
H396        H  0.65647990  0.79476639  0.41328288     0.12500
H397        H  0.60414013  0.80350170  0.41306939     0.11500
H398        H  0.60100726  0.77115240  0.03221106     0.08600
H399        H  0.55050815  0.78454141  0.03114545     0.11900
H400        H  0.55791383  0.80733963  0.43862378     0.13800
C401        C  0.86839632  0.78802905  0.06523069    -0.01800
C402        C  0.86461288  0.76793202  0.08844615    -0.09800
C403        C  0.88420539  0.76685141  0.11199345    -0.18600
C404        C  0.90819378  0.78631778  0.11338319     0.03800
C405        C  0.91283023  0.80562720  0.08899839     0.18000
C406        C  0.89306894  0.80623284  0.06519812    -0.20000
C407        C  0.93673167  0.82476129  0.08890296    -0.21300
C408        C  0.95579865  0.82563209  0.11280341    -0.19800
C409        C  0.95114414  0.80780925  0.13768947     0.19400
C410        C  0.92729846  0.78782871  0.13834362     0.01500
C411        C  0.92295583  0.77111239  0.16445085    -0.14600
C412        C  0.94091947  0.77478890  0.18909618    -0.12300
C413        C  0.96413981  0.79480190  0.18853618     0.01000
C414        C  0.96957391  0.81068347  0.16240851    -0.24500
H415        H  0.84605364  0.75319734  0.08866458     0.09000
H416        H  0.87971797  0.75078518  0.12894221     0.12600
H417        H  0.89626198  0.82176717  0.04724834     0.11300
H418        H  0.94052632  0.83942358  0.07034497     0.12500
H419        H  0.97389981  0.84093436  0.11214447     0.11500
H420        H  0.90531683  0.75566673  0.16693066     0.08600
H421        H  0.93627887  0.76213525  0.20892758     0.11900
H422        H  0.98731905  0.82641903  0.16178247     0.13800
C423        C  0.96871958  0.79580131  0.29745684    -0.01800
C424        C  0.97375919  0.81419565  0.32191608    -0.09800
C425        C  0.95781251  0.81078253  0.34832584    -0.18600
C426        C  0.93629509  0.78860136  0.35112670     0.03800
C427        C  0.93246792  0.76905250  0.32673088     0.18000
C428        C  0.94854310  0.77284325  0.30032086    -0.20000
C429        C  0.91187347  0.74641904  0.32839607    -0.21300
C430        C  0.89379535  0.74367677  0.35317127    -0.19800
C431        C  0.89585192  0.76350399  0.37691533     0.19400
C432        C  0.91764906  0.78577922  0.37664114     0.01500
C433        C  0.91893792  0.80498993  0.40136873    -0.14600
C434        C  0.89814669  0.80354679  0.42416804    -0.12300
C435        C  0.87561821  0.78271447  0.42343891     0.01000
C436        C  0.87533445  0.76199893  0.40029495    -0.24500
H437        H  0.98932032  0.83203818  0.32027088     0.09000
H438        H  0.96238881  0.82625426  0.36586929     0.12600
H439        H  0.94485021  0.75821381  0.28162939     0.11300
H440        H  0.90915039  0.73120672  0.31002137     0.12500
H441        H  0.87748461  0.72644341  0.35335859     0.11500
H442        H  0.93514649  0.82201080  0.40329703     0.08600
H443        H  0.89916135  0.81957893  0.44199936     0.11900
H444        H  0.85808167  0.74572652  0.39951006     0.13800
C445        C  0.74957259  0.94990302  0.18571561    -0.01800
C446        C  0.73310636  0.92412503  0.18354083    -0.09800
C447        C  0.73438056  0.90675360  0.15797168    -0.18600
C448        C  0.75296561  0.91428429  0.13394510     0.03800
C449        C  0.76910159  0.94091809  0.13604425     0.18000
C450        C  0.76679732  0.95871532  0.16154104    -0.20000
C451        C  0.78841613  0.94899094  0.11327529    -0.21300
C452        C  0.79297356  0.93061240  0.08894297    -0.19800
C453        C  0.77800800  0.90392380  0.08658837     0.19400
C454        C  0.75715612  0.89573180  0.10859580     0.01500
C455        C  0.74215477  0.86884941  0.10472043    -0.14600
C456        C  0.74896386  0.85009440  0.08108474    -0.12300
C457        C  0.77078428  0.85748870  0.06048599     0.01000
C458        C  0.78457625  0.88486617  0.06286786    -0.24500
H459        H  0.71952254  0.91707463  0.20199923     0.09000
H460        H  0.72135413  0.88706705  0.15821128     0.12600
H461        H  0.77980911  0.97853900  0.16330642     0.11300
H462        H  0.80074277  0.96925989  0.11471885     0.12500
H463        H  0.80873127  0.93707144  0.07211403     0.11500
H464        H  0.72546613  0.86135676  0.11986590     0.08600
H465        H  0.73783082  0.82914634  0.07965961     0.11900
H466        H  0.80132050  0.89091529  0.04687100     0.13800
C467        C  0.78025370  0.85405869  0.41832759    -0.01800
C468        C  0.78563584  0.88418735  0.42146277    -0.09800
C469        C  0.77964423  0.90356048  0.39824272    -0.18600
C470        C  0.76817044  0.89324317  0.37097865     0.03800
C471        C  0.76202691  0.86273528  0.36836576     0.18000
C472        C  0.76781108  0.84367712  0.39193556    -0.20000
C473        C  0.75093663  0.85115532  0.34191863    -0.21300
C474        C  0.74661057  0.86909517  0.31750717    -0.19800
C475        C  0.75296991  0.89910375  0.31907336     0.19400
C476        C  0.76328766  0.91180873  0.34595321     0.01500
C477        C  0.76870938  0.94240404  0.34634238    -0.14600
C478        C  0.76500931  0.95936937  0.32083131    -0.12300
C479        C  0.75583633  0.94648017  0.29414017     0.02600
C480        C  0.74945735  0.91637437  0.29363620    -0.24500
H481        H  0.79529102  0.89274671  0.44162282     0.09000
H482        H  0.78488504  0.92632676  0.40207132     0.12600
H483        H  0.76337075  0.82040827  0.38929909     0.11300
H484        H  0.74613003  0.82791532  0.33989126     0.12500
H485        H  0.73853299  0.85935428  0.29713823     0.11500
H486        H  0.77606089  0.95384365  0.36591240     0.08600
H487        H  0.76995095  0.98261620  0.32192802     0.11900
H488        H  0.74201425  0.90615316  0.27323921     0.13800
C489        C  0.80869786  0.69002815  0.00085457    -0.01800
C490        C  0.80910623  0.67716324  0.02908808    -0.09800
C491        C  0.81830295  0.64824775  0.03281515    -0.18600
C492        C  0.82776029  0.63117100  0.00826628     0.03800
C493        C  0.82717630  0.64429777  0.97960296     0.18000
C494        C  0.81755978  0.67338639  0.47614684    -0.20000
C495        C  0.83626528  0.62834574  0.45455398    -0.21300
C496        C  0.84539880  0.59938506  0.45722570    -0.19800
C497        C  0.84573607  0.58568605  0.98502403     0.19400
C498        C  0.83739955  0.60147243  0.01104686     0.01500
C499        C  0.83874797  0.58667684  0.03862131    -0.14600
C500        C  0.84645138  0.55704965  0.04002326    -0.12300
C501        C  0.85316736  0.54118431  0.01411196     0.01000
C502        C  0.85363695  0.55597683  0.48679575    -0.24500
H503        H  0.80226529  0.68955909  0.04853998     0.09000
H504        H  0.81775219  0.63997742  0.05520899     0.12600
H505        H  0.81753747  0.68327442  0.45424867     0.11300
H506        H  0.83605175  0.63825154  0.43268273     0.12500
H507        H  0.85191729  0.58749539  0.43733140     0.11500
H508        H  0.83349636  0.59718121  0.05948000     0.08600
H509        H  0.84622289  0.54634252  0.06148516     0.11900
H510        H  0.85926578  0.54412817  0.46659306     0.13800
C511        C  0.87845346  0.27482924  0.27143029    -0.01800
C512        C  0.89457843  0.26668707  0.24611622    -0.09800
C513        C  0.92468015  0.27100537  0.24474448    -0.18600
C514        C  0.93981686  0.28396414  0.26871950     0.03800
C515        C  0.92359755  0.29098315  0.29489484     0.18000
C516        C  0.89328921  0.28626573  0.29607059    -0.20000
C517        C  0.93756499  0.30354596  0.31941036    -0.21300
C518        C  0.96718916  0.31000268  0.31826215    -0.19800
C519        C  0.98357999  0.30424638  0.29249729     0.19400
C520        C  0.97023212  0.29091890  0.26740611     0.01500
C521        C  0.98775371  0.28597312  0.24182308    -0.14600
C522        C  0.01694660  0.29472984  0.24091485    -0.12300
C523        C  0.02988565  0.30827678  0.26551819     0.01000
C524        C  0.01312928  0.31244766  0.29145113    -0.24500
H525        H  0.88376383  0.25766461  0.22679711     0.09000
H526        H  0.93533982  0.26449312  0.22434112     0.12600
H527        H  0.88108518  0.29269397  0.31579590     0.11300
H528        H  0.92539354  0.30884157  0.33948037     0.12500
H529        H  0.97723942  0.32009743  0.33749497     0.11500
H530        H  0.97944636  0.27590004  0.22190376     0.08600
H531        H  0.02941006  0.29100919  0.22069368     0.11900
H532        H  0.02280626  0.32304049  0.31062439     0.13800
C533        C  0.77583275  0.19709937  0.25555985    -0.01800
C534        C  0.77508600  0.18427368  0.22719477    -0.09800
C535        C  0.77156074  0.15401098  0.22366722    -0.18600
C536        C  0.76841430  0.13540201  0.24857648     0.03800
C537        C  0.76868016  0.14858633  0.27732391     0.18000
C538        C  0.77256603  0.17906996  0.28054644    -0.20000
C539        C  0.76517419  0.13126599  0.30272494    -0.21300
C540        C  0.76165196  0.10104235  0.30026762    -0.19800
C541        C  0.76178438  0.08733552  0.27235899     0.19400
C542        C  0.76510771  0.10424784  0.24605723     0.01500
C543        C  0.76518246  0.08915933  0.21846935    -0.14600
C544        C  0.76225629  0.05863039  0.21715000    -0.12300
C545        C  0.75917607  0.04205785  0.24317241     0.01000
C546        C  0.75881261  0.05669382  0.27069082    -0.24500
H547        H  0.77772965  0.19766222  0.20749818     0.09000
H548        H  0.77144026  0.14590850  0.20113691     0.12600
H549        H  0.77302372  0.18877924  0.30259782     0.11300
H550        H  0.76521001  0.14116404  0.32468433     0.12500
H551        H  0.75903747  0.08825253  0.32039049     0.11500
H552        H  0.76765361  0.10024834  0.19749239     0.08600
H553        H  0.76262761  0.04798031  0.19557140     0.11900
H554        H  0.75629252  0.04422837  0.29104004     0.13800
C555        C  0.85682453  0.44899807  0.07093147    -0.01800
C556        C  0.87112838  0.42218979  0.07507705    -0.09800
C557        C  0.86703344  0.40612538  0.10121880    -0.18600
C558        C  0.84756328  0.41598388  0.12370744     0.03800
C559        C  0.83290841  0.44310921  0.11919234     0.18000
C560        C  0.83832098  0.45968485  0.09343875    -0.20000
C561        C  0.81189248  0.45285787  0.13970147    -0.21300
C562        C  0.80405560  0.43555496  0.16388787    -0.19800
C563        C  0.81783999  0.40860310  0.16878727     0.19400
C564        C  0.84076332  0.39909510  0.14959060     0.01500
C565        C  0.85527182  0.37268217  0.15672811    -0.14600
C566        C  0.84544314  0.35501511  0.18007360    -0.12300
C567        C  0.82100068  0.36312201  0.19714195     0.01000
C568        C  0.80810425  0.39058218  0.19214748    -0.24500
H569        H  0.88538027  0.41347497  0.05786346     0.09000
H570        H  0.87838437  0.38545339  0.10259072     0.12600
H571        H  0.82672620  0.48015632  0.09009715     0.11300
H572        H  0.80058398  0.47347298  0.13636304     0.12500
H573        H  0.78682120  0.44313489  0.17864781     0.11500
H574        H  0.87399091  0.36490663  0.14437795     0.08600
H575        H  0.85639803  0.33432522  0.18399107     0.11900
H576        H  0.78960421  0.39744250  0.20562877     0.13800
C577        C  0.81156745  0.36019359  0.33780898    -0.01800
C578        C  0.81221172  0.39078117  0.33447899    -0.09800
C579        C  0.82285949  0.40883557  0.35730581    -0.18600
C580        C  0.83299680  0.39668231  0.38431700     0.03800
C581        C  0.83321820  0.36558762  0.38688335     0.18000
C582        C  0.82294110  0.34787635  0.36375265    -0.20000
C583        C  0.84277217  0.35215773  0.41295265    -0.21300
C584        C  0.85099234  0.36895633  0.43724629    -0.19800
C585        C  0.85022379  0.39961002  0.43594245     0.19400
C586        C  0.84196740  0.41402397  0.40926628     0.01500
C587        C  0.84232500  0.44507685  0.40915584    -0.14600
C588        C  0.84905446  0.46099052  0.43488463    -0.12300
C589        C  0.85567063  0.44658100  0.46155950     0.01000
C590        C  0.85692462  0.41585202  0.46157569    -0.24500
H591        H  0.80382668  0.40083262  0.31450408     0.09000
H592        H  0.82220268  0.43218269  0.35347998     0.12600
H593        H  0.82306235  0.32420758  0.36643958     0.11300
H594        H  0.84313640  0.32842803  0.41486933     0.12500
H595        H  0.85751739  0.35785879  0.45740413     0.11500
H596        H  0.83700380  0.45767331  0.38970065     0.08600
H597        H  0.84817234  0.48474768  0.43402039     0.11900
H598        H  0.86233578  0.40438204  0.48187942     0.13800
C599        C  0.62059514  0.31430737  0.06833362    -0.01800
C600        C  0.61383447  0.32995683  0.09436527    -0.09800
C601        C  0.63110839  0.32724491  0.11966548    -0.18600
C602        C  0.65572459  0.30849637  0.11974867     0.03800
C603        C  0.66170381  0.29180302  0.09360506     0.18000
C604        C  0.64429388  0.29492515  0.06831902    -0.20000
C605        C  0.68539077  0.27247735  0.09257187    -0.21300
C606        C  0.70396067  0.27001929  0.11665254    -0.19800
C607        C  0.69936676  0.28692401  0.14230658     0.19400
C608        C  0.67496340  0.30610613  0.14448534     0.01500
C609        C  0.67137826  0.32254668  0.17103814    -0.14600
C610        C  0.69172517  0.32076603  0.19391154    -0.12300
C611        C  0.71625249  0.30262535  0.19114194     0.01000
C612        C  0.71956687  0.28530276  0.16550178    -0.24500
H613        H  0.59557746  0.34504477  0.09494739     0.09000
H614        H  0.62481227  0.34036781  0.13863422     0.12600
H615        H  0.64942963  0.28239654  0.04839498     0.11300
H616        H  0.68986387  0.25949398  0.07280047     0.12500
H617        H  0.72239714  0.25519857  0.11496511     0.11500
H618        H  0.65342940  0.33743098  0.17459814     0.08600
H619        H  0.68866154  0.33437917  0.21349868     0.11900
H620        H  0.73836077  0.27099108  0.16322691     0.13800
C621        C  0.70777821  0.29658378  0.33210441    -0.01800
C622        C  0.68767549  0.31981113  0.33275380    -0.09800
C623        C  0.66737008  0.32261871  0.35593701    -0.18600
C624        C  0.66675653  0.30239331  0.37971301     0.03800
C625        C  0.68600958  0.27790523  0.37805273     0.18000
C626        C  0.70588500  0.27498635  0.35419116    -0.20000
C627        C  0.68639500  0.25724438  0.40100168    -0.21300
C628        C  0.66925303  0.26117065  0.42634073    -0.19800
C629        C  0.65093235  0.28562203  0.42920288     0.19400
C630        C  0.64868276  0.30616291  0.40559510     0.01500
C631        C  0.62905866  0.32996192  0.40939301    -0.14600
C632        C  0.61312023  0.33360987  0.43583704    -0.12300
C633        C  0.61652828  0.31403230  0.45944873     0.01000
C634        C  0.63525569  0.28992988  0.45584761    -0.24500
H635        H  0.68834801  0.33664621  0.31580732     0.09000
H636        H  0.65323181  0.34148872  0.35517879     0.12600
H637        H  0.72120938  0.25685292  0.35392676     0.11300
H638        H  0.70078772  0.23839069  0.39979213     0.12500
H639        H  0.67073457  0.24520980  0.44408268     0.11500
H640        H  0.62573086  0.34627046  0.39246907     0.08600
H641        H  0.59878156  0.35239820  0.43819764     0.11900
H642        H  0.63773104  0.27450495  0.47397398     0.13800
C643        C  0.37745439  0.37292657  0.02037875    -0.01800
C644        C  0.39079161  0.36373890  0.04669958    -0.09800
C645        C  0.42090223  0.35929008  0.04788409    -0.18600
C646        C  0.43883469  0.36375894  0.52255168     0.03800
C647        C  0.42529060  0.37373780  0.49611557     0.18000
C648        C  0.39500054  0.37830716  0.49530673    -0.20000
C649        C  0.44194064  0.37843423  0.47036453    -0.21300
C650        C  0.47169822  0.37266358  0.46998182    -0.19800
C651        C  0.48561442  0.36212621  0.49537231     0.19400
C652        C  0.46952406  0.35802807  0.52221475     0.01500
C653        C  0.48480871  0.34788002  0.04733896    -0.14600
C654        C  0.51447335  0.34115745  0.04556484    -0.12300
C655        C  0.53003738  0.34417792  0.01876991     0.01000
C656        C  0.51547442  0.35514102  0.49386739    -0.24500
H657        H  0.37780836  0.35922689  0.06638416     0.09000
H658        H  0.42935144  0.35178517  0.06879826     0.12600
H659        H  0.38497450  0.38527046  0.47475219     0.11300
H660        H  0.43177734  0.38617711  0.45018267     0.12500
H661        H  0.48384995  0.37609069  0.44952559     0.11500
H662        H  0.47443567  0.34459431  0.06863668     0.08600
H663        H  0.52508376  0.33286007  0.06525096     0.11900
H664        H  0.52730345  0.35794118  0.47310685     0.13800
C665        C  0.56101838  0.33478890  0.51678631     0.79800
N666        N  0.57417297  0.33005764  0.98989405    -0.78500
C667        C  0.60187126  0.31936335  0.98839645     0.82200
N668        N  0.61642471  0.31375862  0.01390846    -0.78500
C669        C  0.60384472  0.31905657  0.54080892     0.82300
N670        N  0.57614090  0.32946429  0.54208379    -0.80200
O671        O  0.73816448  0.32073195  0.79691417    -0.82300
C672        C  0.84613616  0.27442621  0.77069669     0.97100
O673        O  0.83149681  0.28141020  0.79348186    -0.71400
O674        O  0.79421649  0.31397117  0.82204308    -0.75000
Al675      Al  0.79049535  0.27905981  0.79898238     1.49000
C676        C  0.79822884  0.34057968  0.81533542     0.92300
O677        O  0.78434966  0.34860527  0.73190837    -0.81200
O678        O  0.76412660  0.29253270  0.70759341    -0.74700
Al679      Al  0.76364213  0.33084981  0.76445833     1.90100
O680        O  0.81784027  0.31643617  0.72010701    -0.73800
O681        O  0.77886833  0.24540205  0.73649276    -0.73700
O682        O  0.83346129  0.26842904  0.74658795    -0.79300
O683        O  0.78866177  0.23963907  0.78359272    -0.77500
O684        O  0.78365999  0.29718973  0.76463476    -1.13700
O685        O  0.75004424  0.27562563  0.80876717    -0.72900
C686        C  0.73288688  0.29728613  0.81099312     0.97900
C687        C  0.80736955  0.34185498  0.71791551     0.94300
Al688      Al  0.79730943  0.28196849  0.73067933     1.55600
O689        O  0.79054308  0.35007937  0.79025690    -0.77500
C690        C  0.78109106  0.22905058  0.75882746     0.98400
C691        C  0.73941282  0.30330979  0.71383472     0.93300
O692        O  0.73480014  0.31560691  0.73864038    -0.82800
C693        C  0.85735583  0.50891682  0.51511512     0.79800
N694        N  0.85780765  0.49316507  0.98941679    -0.78500
C695        C  0.85896494  0.46338997  0.98972129     0.82200
N696        N  0.85975329  0.44925894  0.51631302    -0.78500
C697        C  0.85917124  0.46468066  0.54227542     0.82300
N698        N  0.85760626  0.49448466  0.54152446    -0.80200
C699        C  0.75645131  0.00961169  0.74181319     0.79800
N700        N  0.75667918  0.99365643  0.76730591    -0.78500
C701        C  0.75399865  0.96397176  0.76653483     0.82200
N702        N  0.75097282  0.95025259  0.73992473    -0.78500
C703        C  0.75098196  0.96577075  0.71426295     0.82300
N704        N  0.75398542  0.99545943  0.71522798    -0.80200
O705        O  0.80467800  0.83996701  0.52452044    -0.82300
C706        C  0.80046136  0.72121410  0.49772981     0.97100
O707        O  0.80122355  0.73751462  0.52029564    -0.71400
O708        O  0.81975795  0.78312947  0.54882071    -0.75000
Al709      Al  0.78565837  0.77514528  0.52589768     1.49000
C710        C  0.84542286  0.79126496  0.54251399     0.92300
O711        O  0.84774329  0.80850712  0.95948135    -0.81200
O712        O  0.78935024  0.80584905  0.93490074    -0.74700
Al713      Al  0.82346727  0.82045239  0.49191706     1.90100
O714        O  0.83177634  0.76512835  0.94629626    -0.73800
O715        O  0.75085314  0.77442441  0.96326435    -0.73700
O716        O  0.79310834  0.73137111  0.97278620    -0.79300
O717        O  0.74828950  0.76419070  0.51060177    -0.77500
O718        O  0.80039539  0.78867282  0.49170152    -1.13700
O719        O  0.76820410  0.81130060  0.53627784    -0.72900
C720        C  0.78136862  0.83539963  0.53881825     0.97900
C721        C  0.85073132  0.78516140  0.94458551     0.94300
Al722      Al  0.79191860  0.77066738  0.95738459     1.55600
O723        O  0.85113010  0.80287355  0.51768654    -0.77500
C724        C  0.73584407  0.76892769  0.48615702     0.98400
C725        C  0.78954434  0.83290731  0.94123446     0.93300
O726        O  0.79857323  0.84176700  0.96616979    -0.82800
C727        C  0.02200681  0.82096092  0.74005275     0.79800
N728        N  0.00939104  0.81498560  0.76685840    -0.78500
C729        C  0.98299499  0.80151810  0.76840946     0.82200
N730        N  0.96903525  0.79437985  0.74288681    -0.78500
C731        C  0.98099136  0.80069294  0.71594182     0.82300
N732        N  0.00756006  0.81394046  0.71465617    -0.80200
C733        C  0.33705184  0.13585117  0.75937801     0.79800
N734        N  0.33843413  0.14997680  0.78609248    -0.78500
C735        C  0.34060232  0.17983316  0.78720719     0.82200
N736        N  0.34079654  0.19537645  0.76148633    -0.78500
C737        C  0.33898696  0.18154589  0.73478913     0.82300
N738        N  0.33716646  0.15188455  0.73400939    -0.80200
O739        O  0.23208977  0.33869657  0.98455066    -0.82300
C740        C  0.34520473  0.37422277  0.51833444     0.97100
O741        O  0.33336241  0.38020002  0.99382190    -0.71400
O742        O  0.31488771  0.33416062  0.96513154    -0.75000
Al743      Al  0.29636720  0.36934984  0.97749451     1.49000
C744        C  0.30290778  0.30946486  0.96232774     0.92300
O745        O  0.28607120  0.30008449  0.53473066    -0.81200
O746        O  0.24890336  0.37532239  0.55562020    -0.74700
Al747      Al  0.26018648  0.32123288  0.50968958     1.90100
O748        O  0.29185168  0.33547928  0.56739472    -0.73800
O749        O  0.28759544  0.41080210  0.53223953    -0.73700
O750        O  0.32980101  0.36814036  0.54076316    -0.79300
O751        O  0.27975824  0.40655892  0.98460385    -0.77500
O752        O  0.28185520  0.35393346  0.51096909    -1.13700
O753        O  0.26254654  0.36140367  0.95444083    -0.72900
C754        C  0.23730192  0.35180377  0.96038026     0.97900
C755        C  0.29399028  0.30875651  0.56012312     0.94300
Al756      Al  0.28899392  0.37106696  0.54591348     1.55600
O757        O  0.27985305  0.30361753  0.97656652    -0.77500
C758        C  0.28015721  0.42194468  0.50783380     0.98400
C759        C  0.23117443  0.35423509  0.55772274     0.93300
O760        O  0.23525829  0.33103909  0.54275639    -0.82800
C761        C  0.06032354  0.31927281  0.76373773     0.79800
N762        N  0.07323207  0.32420664  0.73679053    -0.78500
C763        C  0.10031752  0.33627605  0.73522184     0.82200
N764        N  0.11454142  0.34299951  0.76064664    -0.78500
C765        C  0.10232048  0.33758000  0.78760160     0.82300
N766        N  0.07512621  0.32580410  0.78905703    -0.80200
C767        C  0.23058612  0.63687627  0.49076041     0.79800
N768        N  0.22931291  0.65316780  0.51599737    -0.78500
C769        C  0.22621646  0.68268689  0.51521998     0.82200
N770        N  0.22427409  0.69622223  0.48846688    -0.78500
C771        C  0.22548930  0.68043542  0.96268210     0.82300
N772        N  0.22894976  0.65065357  0.96394623    -0.80200
O773        O  0.28558621  0.79733954  0.71480412    -0.82300
C774        C  0.30086056  0.91819730  0.74383137     0.97100
O775        O  0.29278073  0.90739299  0.71936340    -0.71400
O776        O  0.32775743  0.86921141  0.69272271    -0.75000
Al777      Al  0.28794253  0.86813551  0.70481538     1.49000
C778        C  0.34364206  0.84671473  0.68977144     0.92300
O779        O  0.34469183  0.83036855  0.76361781    -0.81200
O780        O  0.26256602  0.83241313  0.78595588    -0.74700
Al781      Al  0.31422118  0.81574792  0.73911283     1.90100
O782        O  0.31723585  0.85530915  0.79502716    -0.73800
O783        O  0.24665253  0.87999045  0.75913046    -0.73700
O784        O  0.30197949  0.90246932  0.76668222    -0.79300
O785        O  0.24742806  0.86820727  0.71193480    -0.77500
O786        O  0.29531921  0.85016115  0.73922740    -1.13700
O787        O  0.28115122  0.83322250  0.68279253    -0.72900
C788        C  0.27681457  0.80685321  0.69009727     0.97900
C789        C  0.34138935  0.84361739  0.78817716     0.94300
Al790      Al  0.28327240  0.86618886  0.77359388     1.55600
O791        O  0.33873626  0.82408410  0.70522407    -0.77500
C792        C  0.23343393  0.87484647  0.73515190     0.98400
C793        C  0.27219949  0.80665817  0.78781301     0.93300
O794        O  0.29422985  0.79898081  0.77271116    -0.82800
C795        C  0.51931314  0.80753600  0.48506428     0.79800
N796        N  0.50614461  0.81475509  0.95899461    -0.78500
C797        C  0.47854170  0.82560279  0.95896431     0.82200
N798        N  0.46417436  0.82906853  0.48515076    -0.78500
C799        C  0.47655093  0.82184136  0.51136105     0.82300
N800        N  0.50426164  0.81097024  0.51125101    -0.80200
C801        C  0.36535306  0.84471542  0.81006113    -0.01800
C802        C  0.39106753  0.82857683  0.80580359    -0.09800
C803        C  0.41222108  0.82742909  0.82805748    -0.18600
C804        C  0.40814589  0.84232815  0.85548180     0.03800
C805        C  0.38239811  0.85940276  0.85916916     0.18000
C806        C  0.36161536  0.86063893  0.83655943    -0.20000
C807        C  0.37695693  0.87444971  0.88580414    -0.21300
C808        C  0.39599187  0.87201145  0.90945386    -0.19800
C809        C  0.42103838  0.85463920  0.90696566     0.19400
C810        C  0.42800404  0.84013220  0.87977485     0.01500
C811        C  0.45406249  0.82344078  0.87854404    -0.14600
C812        C  0.47135588  0.81982847  0.90382286    -0.12300
C813        C  0.46323787  0.83270948  0.93098641     0.01000
C814        C  0.43859641  0.85091020  0.93199792    -0.24500
H815        H  0.39454137  0.81613555  0.78550498     0.09000
H816        H  0.43115255  0.81411457  0.82344423     0.12600
H817        H  0.34191898  0.87340274  0.84009897     0.11300
H818        H  0.35743252  0.88761408  0.88864335     0.12500
H819        H  0.39075071  0.88331121  0.93007601     0.11500
H820        H  0.46129255  0.81239204  0.85857802     0.08600
H821        H  0.49048105  0.80593427  0.90236374     0.11900
H822        H  0.43243547  0.86156541  0.95272762     0.13800
C823        C  0.45932810  0.82612570  0.53932604    -0.01800
C824        C  0.46768979  0.81354316  0.56635147    -0.09800
C825        C  0.45040797  0.81701925  0.59207008    -0.18600
C826        C  0.42416645  0.83349078  0.59162167     0.03800
C827        C  0.41617328  0.84661765  0.56425975     0.18000
C828        C  0.43350236  0.84271983  0.53869518    -0.20000
C829        C  0.39083921  0.86361879  0.56240738    -0.21300
C830        C  0.37320462  0.86809921  0.58723639    -0.19800
C831        C  0.38014721  0.85529626  0.61449123     0.19400
C832        C  0.40551215  0.83749270  0.61711916     0.01500
C833        C  0.41061185  0.82409142  0.64496417    -0.14600
C834        C  0.39105973  0.82779668  0.66883560    -0.12300
C835        C  0.36632296  0.84562954  0.66608957     0.01000
C836        C  0.36131838  0.85964015  0.63893794    -0.24500
H837        H  0.48747144  0.80063995  0.56757455     0.09000
H838        H  0.45818660  0.80667763  0.61200833     0.12600
H839        H  0.42673324  0.85288892  0.51811323     0.11300
H840        H  0.38464540  0.87365196  0.54157176     0.12500
H841        H  0.35377817  0.88143828  0.58500642     0.11500
H842        H  0.42908457  0.80998918  0.64869898     0.08600
H843        H  0.39513310  0.81639894  0.68948593     0.11900
H844        H  0.34180968  0.87282098  0.63634861     0.13800
C845        C  0.25872091  0.78592407  0.80925185    -0.01800
C846        C  0.26376270  0.75564691  0.80696311    -0.09800
C847        C  0.25437539  0.73649833  0.82936272    -0.18600
C848        C  0.24025390  0.74722195  0.85532254     0.03800
C849        C  0.23409950  0.77783367  0.85686754     0.18000
C850        C  0.24284352  0.79665797  0.83375653    -0.20000
C851        C  0.22055624  0.78977763  0.88214305    -0.21300
C852        C  0.21448664  0.77231772  0.90669027    -0.19800
C853        C  0.22148262  0.74239015  0.90645614     0.19400
C854        C  0.23346405  0.72910476  0.88044299     0.01500
C855        C  0.23922422  0.69855189  0.88129565    -0.14600
C856        C  0.23534869  0.68246439  0.90753346    -0.12300
C857        C  0.22552671  0.69619146  0.93372285     0.01000
C858        C  0.21763223  0.72596930  0.93258107    -0.24500
H859        H  0.27564537  0.74677712  0.78805379     0.09000
H860        H  0.25951355  0.71359114  0.82624890     0.12600
H861        H  0.23882037  0.82006510  0.83578070     0.11300
H862        H  0.21559533  0.81303613  0.88337456     0.12500
H863        H  0.20497583  0.78248642  0.92632197     0.11500
H864        H  0.24741639  0.68661089  0.86225652     0.08600
H865        H  0.24116735  0.65940858  0.90754453     0.11900
H866        H  0.20935811  0.73678748  0.95244323     0.13800
C867        C  0.26237767  0.78723707  0.66850212    -0.01800
C868        C  0.26305244  0.75670512  0.67175611    -0.09800
C869        C  0.25332273  0.73835814  0.64889175    -0.18600
C870        C  0.24289197  0.75017518  0.62187508     0.03800
C871        C  0.24005911  0.78115976  0.61983756     0.18000
C872        C  0.24954616  0.79924417  0.64308050    -0.20000
C873        C  0.22905564  0.79405535  0.59405921    -0.21300
C874        C  0.22237465  0.77691532  0.56942439    -0.19800
C875        C  0.22667508  0.74650607  0.56996217     0.19400
C876        C  0.23634175  0.73259108  0.59641236     0.01500
C877        C  0.24035971  0.70185389  0.59573684    -0.14600
C878        C  0.23613245  0.68585260  0.56965417    -0.12300
C879        C  0.22769918  0.69976934  0.54329847     0.01000
C880        C  0.22236438  0.73007164  0.54383791    -0.24500
H881        H  0.27222431  0.74692517  0.69150557     0.09000
H882        H  0.25505447  0.71508406  0.65272194     0.12600
H883        H  0.24811325  0.82290438  0.64071245     0.11300
H884        H  0.22645371  0.81767425  0.59260561     0.12500
H885        H  0.21468451  0.78763572  0.54949334     0.11500
H886        H  0.24752875  0.68957908  0.61474946     0.08600
H887        H  0.24036209  0.66245102  0.57005509     0.11900
H888        H  0.21562387  0.74107541  0.52369108     0.13800
C889        C  0.27180494  0.45329014  0.50628711    -0.01800
C890        C  0.26426900  0.46897601  0.53206236    -0.09800
C891        C  0.25613203  0.49851615  0.53051349    -0.18600
C892        C  0.25557300  0.51347966  0.00295440     0.03800
C893        C  0.26291131  0.49729065  0.97687902     0.18000
C894        C  0.27078626  0.46756900  0.97875921    -0.20000
C895        C  0.26251950  0.51086422  0.94901993    -0.21300
C896        C  0.25520806  0.54036796  0.94641888    -0.19800
C897        C  0.24823635  0.55711592  0.97162817     0.19400
C898        C  0.24826191  0.54389558  0.00027720     0.01500
C899        C  0.24138060  0.56182533  0.52501340    -0.14600
C900        C  0.23516877  0.59155670  0.52150902    -0.12300
C901        C  0.23546730  0.60470627  0.49329869     0.01000
C902        C  0.24170333  0.58716502  0.96837306    -0.24500
H903        H  0.26441641  0.45829604  0.55354582     0.09000
H904        H  0.25045690  0.50897324  0.55128964     0.12600
H905        H  0.27646945  0.45557850  0.95865211     0.11300
H906        H  0.26804342  0.49858463  0.92906267     0.12500
H907        H  0.25526499  0.55022561  0.92452580     0.11500
H908        H  0.24093907  0.55368005  0.54746243     0.08600
H909        H  0.23036385  0.60435931  0.54129646     0.11900
H910        H  0.24211801  0.59699124  0.94645795     0.13800
C911        C  0.11476106  0.34220892  0.70641660    -0.01800
C912        C  0.13212122  0.36731551  0.70336757    -0.09800
C913        C  0.14856385  0.37204797  0.67763742    -0.18600
C914        C  0.14878903  0.35125838  0.65419832     0.03800
C915        C  0.13078760  0.32593620  0.65722270     0.18000
C916        C  0.11352534  0.32195024  0.68293958    -0.20000
C917        C  0.13100889  0.30422269  0.63509033    -0.21300
C918        C  0.14948519  0.30657722  0.61051901    -0.19800
C919        C  0.16784514  0.33095400  0.60718371     0.19400
C920        C  0.16715248  0.35406616  0.62852359     0.01500
C921        C  0.18549460  0.37859878  0.62361719    -0.14600
C922        C  0.20504404  0.37923210  0.59969635    -0.12300
C923        C  0.20695579  0.35561231  0.57972648     0.01000
C924        C  0.18761432  0.33190982  0.58313111    -0.24500
H925        H  0.13328759  0.38328203  0.72125881     0.09000
H926        H  0.16160718  0.39172183  0.67727729     0.12600
H927        H  0.10037186  0.30229207  0.68538381     0.11300
H928        H  0.11738194  0.28487440  0.63720015     0.12500
H929        H  0.14972683  0.28897273  0.59421843     0.11500
H930        H  0.18566281  0.39747193  0.63813382     0.08600
H931        H  0.21950421  0.39793354  0.59750911     0.11900
H932        H  0.18868678  0.31357547  0.56769110     0.13800
C933        C  0.11912436  0.34389715  0.81482679    -0.01800
C934        C  0.14194458  0.36432748  0.81387159    -0.09800
C935        C  0.15970261  0.36890359  0.83844481    -0.18600
C936        C  0.15553280  0.35271631  0.86489139     0.03800
C937        C  0.13194894  0.33242408  0.86601465     0.18000
C938        C  0.11380963  0.32848976  0.84123872    -0.20000
C939        C  0.12716829  0.31552272  0.89152081    -0.21300
C940        C  0.14586139  0.31762965  0.91562874    -0.19800
C941        C  0.16969861  0.33681851  0.91490337     0.19400
C942        C  0.17452769  0.35513522  0.88979695     0.01500
C943        C  0.19871111  0.37440208  0.89036764    -0.14600
C944        C  0.21827816  0.37403273  0.91390153    -0.12300
C945        C  0.21425430  0.35485877  0.93785543     0.01000
C946        C  0.18935820  0.33702852  0.93871077    -0.24500
H947        H  0.14634064  0.37672812  0.79382003     0.09000
H948        H  0.17691059  0.38478353  0.83569558     0.12600
H949        H  0.09629741  0.31249985  0.84212607     0.11300
H950        H  0.10921105  0.30007010  0.89257984     0.12500
H951        H  0.14195809  0.30373204  0.93476223     0.11500
H952        H  0.20353701  0.38959452  0.87270847     0.08600
H953        H  0.23707731  0.38843333  0.91298379     0.11900
H954        H  0.18599319  0.32222244  0.95725168     0.13800
C955        C  0.30498390  0.28803653  0.58256561    -0.01800
C956        C  0.30159951  0.25761167  0.57952330    -0.09800
C957        C  0.30938690  0.23879346  0.60270625    -0.18600
C958        C  0.32056518  0.25006417  0.62976299     0.03800
C959        C  0.32442105  0.28093205  0.63223633     0.18000
C960        C  0.31718098  0.29932874  0.60867576    -0.20000
C961        C  0.33450652  0.29355890  0.65861318    -0.21300
C962        C  0.33994231  0.27624658  0.68320369    -0.19800
C963        C  0.33606870  0.24583139  0.68175782     0.19400
C964        C  0.32713031  0.23212749  0.65482360     0.01500
C965        C  0.32474482  0.20118132  0.65441851    -0.14600
C966        C  0.32954290  0.18478859  0.68009666    -0.12300
C967        C  0.33680696  0.19863754  0.70697461     0.01000
C968        C  0.34062675  0.22913292  0.70738815    -0.24500
H969        H  0.29212561  0.24839733  0.55956533     0.09000
H970        H  0.30555234  0.21568981  0.59915704     0.12600
H971        H  0.32015000  0.32284887  0.61120366     0.11300
H972        H  0.33746242  0.31712266  0.66050466     0.12500
H973        H  0.34698910  0.28676340  0.70358616     0.11500
H974        H  0.31901640  0.18904395  0.63468691     0.08600
H975        H  0.32682542  0.16117468  0.67897976     0.11900
H976        H  0.34671451  0.24008082  0.72788062     0.13800
C977        C  0.31466246  0.28772952  0.94084257    -0.01800
C978        C  0.30498142  0.25857842  0.94173194    -0.09800
C979        C  0.31229042  0.23881925  0.91909644    -0.18600
C980        C  0.32915749  0.24780188  0.89430472     0.03800
C981        C  0.33990166  0.27713595  0.89405999     0.18000
C982        C  0.33304284  0.29657430  0.91746872    -0.20000
C983        C  0.35617929  0.28732956  0.86974892    -0.21300
C984        C  0.36060396  0.26956337  0.84489685    -0.19800
C985        C  0.34934308  0.24098030  0.84399722     0.19400
C986        C  0.33445129  0.22925509  0.86910806     0.01500
C987        C  0.32466129  0.19979280  0.86744217    -0.14600
C988        C  0.32782511  0.18339604  0.84128701    -0.12300
C989        C  0.34072287  0.19576591  0.81597422     0.01000
C990        C  0.35211575  0.22433580  0.81776151    -0.24500
H991        H  0.29093292  0.25115966  0.95966572     0.09000
H992        H  0.30338078  0.21702253  0.92111097     0.12600
H993        H  0.34055277  0.31915079  0.91651008     0.11300
H994        H  0.36463220  0.30957063  0.86948863     0.12500
H995        H  0.37239316  0.27846265  0.82599160     0.11500
H996        H  0.31408090  0.18889813  0.88579616     0.08600
H997        H  0.31911043  0.16128577  0.84057195     0.11900
H998        H  0.36267235  0.23391128  0.79843556     0.13800
C999        C  0.30845967  0.94973594  0.74581567    -0.01800
C1000       C  0.31488307  0.96560999  0.72002590    -0.09800
C1001       C  0.32107102  0.99557734  0.72144744    -0.18600
C1002       C  0.32067807  0.01089423  0.74890654     0.03800
C1003       C  0.31458712  0.99461123  0.77512205     0.18000
C1004       C  0.30862638  0.96434360  0.77337029    -0.20000
C1005       C  0.31428824  0.00867300  0.80288682    -0.21300
C1006       C  0.31975484  0.03867704  0.80518949    -0.19800
C1007       C  0.32530058  0.05545993  0.77975170     0.19400
C1008       C  0.32583543  0.04177358  0.75124171     0.01500
C1009       C  0.33099913  0.05968731  0.72620750    -0.14600
C1010       C  0.33503788  0.08983054  0.72926069    -0.12300
C1011       C  0.33423722  0.10343193  0.75729166     0.01000
C1012       C  0.32974644  0.08597363  0.78256217    -0.24500
H1013       H  0.31518779  0.95477802  0.69853048     0.09000
H1014       H  0.32598921  0.00604675  0.70058608     0.12600
H1015       H  0.30359055  0.95224199  0.79348482     0.11300
H1016       H  0.30971511  0.99638350  0.82297951     0.12500
H1017       H  0.31927940  0.04889198  0.82699940     0.11500
H1018       H  0.33163534  0.05124435  0.70382218     0.08600
H1019       H  0.33856940  0.10256532  0.70926434     0.11900
H1020       H  0.32902012  0.09617192  0.80438133     0.13800
C1021       C  0.05157533  0.83421597  0.73869144    -0.01800
C1022       C  0.06418455  0.84610851  0.76434979    -0.09800
C1023       C  0.09280985  0.85650255  0.76399759    -0.18600
C1024       C  0.11010800  0.85503506  0.73787466     0.03800
C1025       C  0.09691988  0.84395871  0.71159395     0.18000
C1026       C  0.06791624  0.83392703  0.71217412    -0.20000
C1027       C  0.11300565  0.84217546  0.68507025    -0.21300
C1028       C  0.14224780  0.85019877  0.68428401    -0.19800
C1029       C  0.15614646  0.86019201  0.71000926     0.19400
C1030       C  0.14019487  0.86326578  0.73707947     0.01500
C1031       C  0.15535729  0.87344212  0.76238889    -0.14600
C1032       C  0.18530324  0.87878652  0.76122877    -0.12300
C1033       C  0.20116247  0.87446346  0.73483879     0.01000
C1034       C  0.18621752  0.86600801  0.70907506    -0.24500
H1035       H  0.05198291  0.84708957  0.78504455     0.09000
H1036       H  0.10087773  0.86507082  0.78472159     0.12600
H1037       H  0.05842939  0.82492118  0.69209993     0.11300
H1038       H  0.10305781  0.83393686  0.66490643     0.12500
H1039       H  0.15425067  0.84793649  0.66354399     0.11500
H1040       H  0.14491702  0.87668747  0.78368190     0.08600
H1041       H  0.19625851  0.88527358  0.78147169     0.11900
H1042       H  0.19823654  0.86252609  0.68849841     0.13800
C1043       C  0.70334650  0.76912257  0.48494860    -0.01800
C1044       C  0.68680911  0.76239959  0.51041472    -0.09800
C1045       C  0.65648904  0.76561435  0.51076576    -0.18600
C1046       C  0.64140000  0.77593378  0.48559007     0.03800
C1047       C  0.65801584  0.78135734  0.45931500     0.18000
C1048       C  0.68859685  0.77796787  0.95922512    -0.20000
C1049       C  0.64407090  0.79082306  0.93348088    -0.21300
C1050       C  0.61412924  0.79583198  0.93337057    -0.19800
C1051       C  0.59734205  0.79196875  0.45921439     0.19400
C1052       C  0.61064392  0.78173558  0.48567441     0.01500
C1053       C  0.59269960  0.77876809  0.51124534    -0.14600
C1054       C  0.56317603  0.78656202  0.51084086    -0.12300
C1055       C  0.55023520  0.79723499  0.48487723     0.01000
C1056       C  0.56747317  0.79918038  0.95895289    -0.24500
H1057       H  0.69743436  0.75519675  0.53052531     0.09000
H1058       H  0.64549685  0.76019324  0.53130750     0.12600
H1059       H  0.70099853  0.78310568  0.93928906     0.11300
H1060       H  0.65648001  0.79476631  0.91328282     0.12500
H1061       H  0.60414025  0.80350178  0.91306930     0.11500
H1062       H  0.60100692  0.77115035  0.53221057     0.08600
H1063       H  0.55050780  0.78453962  0.53114514     0.11900
H1064       H  0.55791397  0.80734004  0.93862372     0.13800
C1065       C  0.86839615  0.78802857  0.56523110    -0.01800
C1066       C  0.86461263  0.76793170  0.58844669    -0.09800
C1067       C  0.88420540  0.76685084  0.61199377    -0.18600
C1068       C  0.90819412  0.78631685  0.61338320     0.03800
C1069       C  0.91283043  0.80562632  0.58899842     0.18000
C1070       C  0.89306900  0.80623206  0.56519827    -0.20000
C1071       C  0.93673179  0.82476053  0.58890294    -0.21300
C1072       C  0.95579872  0.82563153  0.61280342    -0.19800
C1073       C  0.95114452  0.80780850  0.63768937     0.19400
C1074       C  0.92729914  0.78782755  0.63834340     0.01500
C1075       C  0.92295723  0.77111051  0.66445028    -0.14600
C1076       C  0.94092096  0.77478701  0.68909553    -0.12300
C1077       C  0.96414070  0.79480072  0.68853582     0.01000
C1078       C  0.96957431  0.81068283  0.66240840    -0.24500
H1079       H  0.84605315  0.75319734  0.58866539     0.09000
H1080       H  0.87971778  0.75078486  0.62894272     0.12600
H1081       H  0.89626206  0.82176632  0.54724844     0.11300
H1082       H  0.94052629  0.83942288  0.57034498     0.12500
H1083       H  0.97389968  0.84093406  0.61214452     0.11500
H1084       H  0.90531882  0.75566415  0.66692983     0.08600
H1085       H  0.93628089  0.76213280  0.70892669     0.11900
H1086       H  0.98731907  0.82641883  0.66178256     0.13800
C1087       C  0.96871923  0.79580048  0.79745640    -0.01800
C1088       C  0.97375941  0.81419421  0.82191598    -0.09800
C1089       C  0.95781252  0.81078120  0.84832563    -0.18600
C1090       C  0.93629430  0.78860075  0.85112600     0.03800
C1091       C  0.93246634  0.76905263  0.82672972     0.18000
C1092       C  0.94854179  0.77284321  0.80031986    -0.20000
C1093       C  0.91187089  0.74642004  0.82839429    -0.21300
C1094       C  0.89379270  0.74367790  0.85316943    -0.19800
C1095       C  0.89585026  0.76350432  0.87691406     0.19400
C1096       C  0.91764829  0.78577866  0.87664043     0.01500
C1097       C  0.91893812  0.80498855  0.90136863    -0.14600
C1098       C  0.89814698  0.80354555  0.92416803    -0.12300
C1099       C  0.87561771  0.78271415  0.92343837     0.01000
C1100       C  0.87533293  0.76199935  0.90029377    -0.24500
H1101       H  0.98932122  0.83203618  0.82027118     0.09000
H1102       H  0.96238933  0.82625243  0.86586937     0.12600
H1103       H  0.94484838  0.75821429  0.78162811     0.11300
H1104       H  0.90914715  0.73120832  0.81001919     0.12500
H1105       H  0.87748122  0.72644525  0.85335631     0.11500
H1106       H  0.93514743  0.82200865  0.90329738     0.08600
H1107       H  0.89916237  0.81957707  0.94199987     0.11900
H1108       H  0.85807949  0.74572768  0.89950849     0.13800
C1109       C  0.74957123  0.94990328  0.68571511    -0.01800
C1110       C  0.73310485  0.92412538  0.68354030    -0.09800
C1111       C  0.73437906  0.90675396  0.65797115    -0.18600
C1112       C  0.75296425  0.91428452  0.63394464     0.03800
C1113       C  0.76910012  0.94091839  0.63604370     0.18000
C1114       C  0.76679591  0.95871560  0.66154052    -0.20000
C1115       C  0.78841451  0.94899135  0.61327465    -0.21300
C1116       C  0.79297191  0.93061283  0.58894231    -0.19800
C1117       C  0.77800668  0.90392403  0.58658792     0.19400
C1118       C  0.75715500  0.89573187  0.60859550     0.01500
C1119       C  0.74215423  0.86884911  0.60472051    -0.14600
C1120       C  0.74896358  0.85009401  0.58108499    -0.12300
C1121       C  0.77078370  0.85748856  0.56048601     0.01000
C1122       C  0.78457514  0.88486632  0.56286752    -0.24500
H1123       H  0.71952097  0.91707507  0.70199867     0.09000
H1124       H  0.72135243  0.88706753  0.65821066     0.12600
H1125       H  0.77980772  0.97853926  0.66330589     0.11300
H1126       H  0.80074100  0.96926039  0.61471811     0.12500
H1127       H  0.80872947  0.93707199  0.57211325     0.11500
H1128       H  0.72546595  0.86135616  0.61986625     0.08600
H1129       H  0.73783101  0.82914566  0.57966019     0.11900
H1130       H  0.80131918  0.89091561  0.54687051     0.13800
C1131       C  0.78025343  0.85405896  0.91832733    -0.01800
C1132       C  0.78563583  0.88418758  0.92146243    -0.09800
C1133       C  0.77964434  0.90356070  0.89824234    -0.18600
C1134       C  0.76817039  0.89324346  0.87097833     0.03800
C1135       C  0.76202616  0.86273569  0.86836570     0.18000
C1136       C  0.76781037  0.84367749  0.89193548    -0.20000
C1137       C  0.75093508  0.85115588  0.84191884    -0.21300
C1138       C  0.74660886  0.86909574  0.81750741    -0.19800
C1139       C  0.75296915  0.89910414  0.81907325     0.19400
C1140       C  0.76328795  0.91180895  0.84595277     0.01500
C1141       C  0.76871111  0.94240401  0.84634142    -0.14600
C1142       C  0.76501103  0.95936928  0.82083032    -0.12300
C1143       C  0.75583660  0.94648027  0.79413960     0.02600
C1144       C  0.74945653  0.91637471  0.79363605    -0.24500
H1145       H  0.79529117  0.89274689  0.94162241     0.09000
H1146       H  0.78488527  0.92632696  0.90207093     0.12600
H1147       H  0.76336967  0.82040870  0.88929914     0.11300
H1148       H  0.74612787  0.82791600  0.83989169     0.12500
H1149       H  0.73853053  0.85935498  0.79713873     0.11500
H1150       H  0.77606389  0.95384346  0.86591104     0.08600
H1151       H  0.76995375  0.98261589  0.82192664     0.11900
H1152       H  0.74201244  0.90615365  0.77323936     0.13800
C1153       C  0.80869824  0.69002815  0.50085521    -0.01800
C1154       C  0.80910662  0.67716327  0.52908874    -0.09800
C1155       C  0.81830340  0.64824779  0.53281581    -0.18600
C1156       C  0.82776072  0.63117104  0.50826693     0.03800
C1157       C  0.82717687  0.64429788  0.47960363     0.18000
C1158       C  0.81755923  0.67338631  0.97614616    -0.20000
C1159       C  0.83626463  0.62834556  0.95455330    -0.21300
C1160       C  0.84539830  0.59938491  0.95722510    -0.19800
C1161       C  0.84573632  0.58568609  0.48502458     0.19400
C1162       C  0.83739979  0.60147241  0.51104744     0.01500
C1163       C  0.83874794  0.58667668  0.53862183    -0.14600
C1164       C  0.84645114  0.55704942  0.54002366    -0.12300
C1165       C  0.85316718  0.54118417  0.51411230     0.01000
C1166       C  0.85363692  0.55597684  0.98679532    -0.24500
H1167       H  0.80226564  0.68955911  0.54854063     0.09000
H1168       H  0.81775266  0.63997745  0.55520965     0.12600
H1169       H  0.81753688  0.68327433  0.95424799     0.11300
H1170       H  0.83605096  0.63825127  0.93268203     0.12500
H1171       H  0.85191676  0.58749519  0.93733081     0.11500
H1172       H  0.83349626  0.59718097  0.55948053     0.08600
H1173       H  0.84622248  0.54634218  0.56148551     0.11900
H1174       H  0.85926572  0.54412812  0.96659266     0.13800
C1175       C  0.87845400  0.27482921  0.77143012    -0.01800
C1176       C  0.89457911  0.26668675  0.74611624    -0.09800
C1177       C  0.92468083  0.27100522  0.74474458    -0.18600
C1178       C  0.93981733  0.28396447  0.76871947     0.03800
C1179       C  0.92359788  0.29098378  0.79489463     0.18000
C1180       C  0.89328956  0.28626619  0.79607031    -0.20000
C1181       C  0.93756511  0.30354701  0.81941005    -0.21300
C1182       C  0.96718928  0.31000378  0.81826195    -0.19800
C1183       C  0.98358026  0.30424716  0.79249727     0.19400
C1184       C  0.97023257  0.29091937  0.76740616     0.01500
C1185       C  0.98775430  0.28597339  0.74182327    -0.14600
C1186       C  0.01694718  0.29473008  0.74091515    -0.12300
C1187       C  0.02988610  0.30827720  0.76551847     0.01000
C1188       C  0.01312957  0.31244841  0.79145124    -0.24500
H1189       H  0.88376464  0.25766391  0.72679724     0.09000
H1190       H  0.93534064  0.26449269  0.72434140     0.12600
H1191       H  0.88108543  0.29269465  0.81579545     0.11300
H1192       H  0.92539353  0.30884285  0.83947991     0.12500
H1193       H  0.97723939  0.32009879  0.83749470     0.11500
H1194       H  0.97944705  0.27590016  0.72190398     0.08600
H1195       H  0.02941076  0.29100924  0.72069410     0.11900
H1196       H  0.02280644  0.32304143  0.81062444     0.13800
C1197       C  0.77583303  0.19709927  0.75555957    -0.01800
C1198       C  0.77508465  0.18427381  0.72719443    -0.09800
C1199       C  0.77155906  0.15401116  0.72366684    -0.18600
C1200       C  0.76841394  0.13540202  0.74857613     0.03800
C1201       C  0.76868147  0.14858611  0.77732363     0.18000
C1202       C  0.77256764  0.17906968  0.78054618    -0.20000
C1203       C  0.76517678  0.13126562  0.80272472    -0.21300
C1204       C  0.76165416  0.10104205  0.80026737    -0.19800
C1205       C  0.76178498  0.08733542  0.77235865     0.19400
C1206       C  0.76510706  0.10424790  0.74605683     0.01500
C1207       C  0.76518036  0.08915957  0.71846887    -0.14600
C1208       C  0.76225405  0.05863064  0.71714947    -0.12300
C1209       C  0.75917507  0.04205796  0.74317194     0.01000
C1210       C  0.75881296  0.05669377  0.77069043    -0.24500
H1211       H  0.77772721  0.19766249  0.70749779     0.09000
H1212       H  0.77143723  0.14590886  0.70113648     0.12600
H1213       H  0.77302660  0.18877877  0.80259761     0.11300
H1214       H  0.76521389  0.14116350  0.82468417     0.12500
H1215       H  0.75904067  0.08825209  0.82039029     0.11500
H1216       H  0.76765054  0.10024870  0.69749186     0.08600
H1217       H  0.76262430  0.04798070  0.69557080     0.11900
H1218       H  0.75629385  0.04422821  0.79103970     0.13800
C1219       C  0.85682496  0.44899772  0.57093141    -0.01800
C1220       C  0.87112812  0.42218896  0.57507630    -0.09800
C1221       C  0.86703331  0.40612436  0.60121792    -0.18600
C1222       C  0.84756403  0.41598320  0.62370717     0.03800
C1223       C  0.83290991  0.44310908  0.61919283     0.18000
C1224       C  0.83832231  0.45968483  0.59343930    -0.20000
C1225       C  0.81189488  0.45285820  0.63970268    -0.21300
C1226       C  0.80405812  0.43555529  0.66388911    -0.19800
C1227       C  0.81784175  0.40860289  0.66878775     0.19400
C1228       C  0.84076421  0.39909433  0.64959028     0.01500
C1229       C  0.85527200  0.37268078  0.65672699    -0.14600
C1230       C  0.84544340  0.35501379  0.68007253    -0.12300
C1231       C  0.82100170  0.36312133  0.69714170     0.01000
C1232       C  0.80810605  0.39058202  0.69214800    -0.24500
H1233       H  0.88537933  0.41347388  0.55786225     0.09000
H1234       H  0.87838364  0.38545199  0.60258926     0.12600
H1235       H  0.82672807  0.48015671  0.59009825     0.11300
H1236       H  0.80058697  0.47347374  0.63636483     0.12500
H1237       H  0.78682441  0.44313563  0.67864966     0.11500
H1238       H  0.87399045  0.36490471  0.64437616     0.08600
H1239       H  0.85639766  0.33432344  0.68398935     0.11900
H1240       H  0.78960665  0.39744281  0.70562995     0.13800
C1241       C  0.81156778  0.36019346  0.83780879    -0.01800
C1242       C  0.81221237  0.39078101  0.83447863    -0.09800
C1243       C  0.82286001  0.40883546  0.85730548    -0.18600
C1244       C  0.83299693  0.39668226  0.88431687     0.03800
C1245       C  0.83321824  0.36558758  0.88688331     0.18000
C1246       C  0.82294111  0.34787628  0.86375265    -0.20000
C1247       C  0.84277229  0.35215773  0.91295261    -0.21300
C1248       C  0.85099271  0.36895638  0.93724613    -0.19800
C1249       C  0.85022402  0.39961006  0.93594231     0.19400
C1250       C  0.84196734  0.41402398  0.90926620     0.01500
C1251       C  0.84232438  0.44507685  0.90915593    -0.14600
C1252       C  0.84905379  0.46099054  0.93488472    -0.12300
C1253       C  0.85567051  0.44658103  0.96155946     0.01000
C1254       C  0.85692490  0.41585208  0.96157552    -0.24500
H1255       H  0.80382769  0.40083242  0.81450353     0.09000
H1256       H  0.82220356  0.43218256  0.85347946     0.12600
H1257       H  0.82306218  0.32420752  0.86643970     0.11300
H1258       H  0.84313652  0.32842804  0.91486933     0.12500
H1259       H  0.85751794  0.35785887  0.95740392     0.11500
H1260       H  0.83700266  0.45767332  0.88970088     0.08600
H1261       H  0.84817119  0.48474769  0.93402059     0.11900
H1262       H  0.86233641  0.40438212  0.98187919     0.13800
C1263       C  0.62059521  0.31430662  0.56833325    -0.01800
C1264       C  0.61383466  0.32995604  0.59436497    -0.09800
C1265       C  0.63110889  0.32724437  0.61966499    -0.18600
C1266       C  0.65572532  0.30849612  0.61974796     0.03800
C1267       C  0.66170461  0.29180301  0.59360422     0.18000
C1268       C  0.64429431  0.29492482  0.56831837    -0.20000
C1269       C  0.68539200  0.27247787  0.59257069    -0.21300
C1270       C  0.70396216  0.27002005  0.61665120    -0.19800
C1271       C  0.69936799  0.28692436  0.64230548     0.19400
C1272       C  0.67496425  0.30610595  0.64448455     0.01500
C1273       C  0.67137874  0.32254594  0.67103766    -0.14600
C1274       C  0.69172566  0.32076529  0.69391107    -0.12300
C1275       C  0.71625336  0.30262518  0.69114118     0.01000
C1276       C  0.71956815  0.28530314  0.66550067    -0.24500
H1277       H  0.59557747  0.34504376  0.59494728     0.09000
H1278       H  0.62481283  0.34036727  0.63863374     0.12600
H1279       H  0.64943007  0.28239633  0.54839427     0.11300
H1280       H  0.68986522  0.25949473  0.57279916     0.12500
H1281       H  0.72239893  0.25519974  0.61496351     0.11500
H1282       H  0.65342952  0.33742972  0.67459797     0.08600
H1283       H  0.68866168  0.33437795  0.71349849     0.11900
H1284       H  0.73836233  0.27099189  0.66322555     0.13800
C1285       C  0.70777915  0.29658384  0.83210454    -0.01800
C1286       C  0.68767620  0.31981098  0.83275366    -0.09800
C1287       C  0.66737102  0.32261886  0.85593705    -0.18600
C1288       C  0.66675794  0.30239395  0.87971351     0.03800
C1289       C  0.68601129  0.27790610  0.87805358     0.18000
C1290       C  0.70588651  0.27498694  0.85419186    -0.20000
C1291       C  0.68639713  0.25724570  0.90100294    -0.21300
C1292       C  0.66925512  0.26117212  0.92634193    -0.19800
C1293       C  0.65093407  0.28562326  0.92920369     0.19400
C1294       C  0.64868424  0.30616379  0.90559561     0.01500
C1295       C  0.62905993  0.32996266  0.90939323    -0.14600
C1296       C  0.61312137  0.33361075  0.93583716    -0.12300
C1297       C  0.61652949  0.31403342  0.95944906     0.01000
C1298       C  0.63525723  0.28993122  0.95584828    -0.24500
H1299       H  0.68834832  0.33664567  0.81580676     0.09000
H1300       H  0.65323249  0.34148865  0.85517854     0.12600
H1301       H  0.72121113  0.25685371  0.85392772     0.11300
H1302       H  0.70079011  0.23839219  0.89979368     0.12500
H1303       H  0.67073688  0.24521157  0.94408414     0.11500
H1304       H  0.62573205  0.34627102  0.89246912     0.08600
H1305       H  0.59878250  0.35239894  0.93819751     0.11900
H1306       H  0.63773269  0.27450650  0.97397483     0.13800
C1307       C  0.37745397  0.37292633  0.52037897    -0.01800
C1308       C  0.39079103  0.36373787  0.54669962    -0.09800
C1309       C  0.42090164  0.35928906  0.54788421    -0.18600
C1310       C  0.43883509  0.36375917  0.02255127     0.03800
C1311       C  0.42529085  0.37373732  0.99611497     0.18000
C1312       C  0.39500078  0.37830665  0.99530622    -0.20000
C1313       C  0.44194072  0.37843313  0.97036371    -0.21300
C1314       C  0.47169833  0.37266263  0.96998101    -0.19800
C1315       C  0.48561469  0.36212593  0.99537169     0.19400
C1316       C  0.46952445  0.35802828  0.02221428     0.01500
C1317       C  0.48480823  0.34787940  0.54733932    -0.14600
C1318       C  0.51447286  0.34115671  0.54556518    -0.12300
C1319       C  0.53003695  0.34417746  0.51877031     0.01000
C1320       C  0.51547473  0.35514091  0.99386681    -0.24500
H1321       H  0.37780764  0.35922521  0.56638394     0.09000
H1322       H  0.42935071  0.35178343  0.56879818     0.12600
H1323       H  0.38497461  0.38526936  0.97475153     0.11300
H1324       H  0.43177729  0.38617546  0.95018170     0.12500
H1325       H  0.48384996  0.37608933  0.94952464     0.11500
H1326       H  0.47443513  0.34459347  0.56863698     0.08600
H1327       H  0.52508322  0.33285897  0.56525117     0.11900
H1328       H  0.52730369  0.35794077  0.97310619     0.13800
loop_ 
_geom_bond_atom_site_label_1 
_geom_bond_atom_site_label_2 
_geom_bond_distance 
_geom_bond_site_symmetry_2 
_ccdc_geom_bond_type 
C1            N6   1.360       .  A
C1          N666   1.364   1_554  A
C1          C655   1.486       .  S
N2            C3   1.362       .  A
N2          C665   1.364       .  A
C3            N4   1.357       .  A
C3          C633   1.480       .  S
N4          C669   1.357       .  A
C5            N6   1.357       .  A
C5          N668   1.357       .  A
C5          C599   1.479       .  S
O7           C22   1.265       .  A
O7          Al15   1.920       .  S
C8          C511   1.483       .  S
C8           O18   1.263       .  A
C8            O9   1.260       .  A
O9          Al11   1.898       .  S
O10          C12   1.262       .  A
O10         Al11   1.902       .  S
Al11         O19   1.923       .  S
Al11         O21   1.910       .  S
Al11         O20   1.784       .  S
C12         C577   1.482       .  S
C12          O25   1.262       .  A
O13          C23   1.262       .  A
O13         Al15   1.920       .  S
O14          C27   1.264       .  A
O14         Al24   1.912       .  S
Al15         O28   1.897       .  S
Al15         O25   1.910       .  S
Al15         O20   1.787       .  S
O16          C23   1.257       .  A
O16         Al24   1.890       .  S
O17          C26   1.257       .  A
O17         Al24   1.885       .  S
O18         Al24   1.914       .  S
O19          C26   1.263       .  A
O20         Al24   1.784       .  S
O21          C22   1.265       .  A
C22         C621   1.487       .  S
C23         C567   1.483       .  S
C26         C533   1.481       .  S
C27         C611   1.479       .  S
C27          O28   1.263       .  A
C29          N34   1.360       .  A
C29         N694   1.358   1_554  A
C29         C501   1.482       .  S
N30          C31   1.356       .  A
N30         C693   1.358       .  A
C31         N696   1.361       .  A
C31         C589   1.486       .  S
N32          C33   1.360       .  A
N32         C695   1.361   1_554  A
C33          N34   1.359       .  A
C33         C555   1.479       .  S
C35          N36   1.360   1_545  A
C35          N40   1.361   1_545  A
C35         C545   1.483       .  S
N36          C37   1.357       .  A
C37          N38   1.356       .  A
C37         C479   1.481       .  S
N38          C39   1.356       .  A
C39          N40   1.359       .  A
C39         C445   1.472       .  S
O41          C56   1.261       .  A
O41         Al49   1.911   1_554  S
C42         C489   1.477   1_556  S
C42          O43   1.255   1_556  A
C42         O716   1.263       .  A
O43         Al45   1.871       .  S
O44          C46   1.264       .  A
O44         Al45   1.914       .  S
Al45         O53   1.917       .  S
Al45         O55   1.886       .  S
Al45         O54   1.787   1_554  S
C46         C401   1.481       .  S
C46          O59   1.263       .  A
O47          C57   1.261       .  A
O47        Al713   1.906       .  S
O48          C61   1.263       .  A
O48         Al58   1.902       .  S
Al49         O59   1.904   1_556  S
Al49        O711   1.906       .  S
Al49        O726   1.902       .  S
Al49         O54   1.792       .  S
O50          C57   1.262       .  A
O50         Al58   1.908       .  S
O51         C724   1.260       .  A
O51         Al58   1.908       .  S
O52         C706   1.263       .  A
O52         Al58   1.922       .  S
O53          C60   1.262   1_554  A
O54        Al722   1.790       .  S
O55          C56   1.257       .  A
C56         C457   1.477       .  S
C57         C435   1.484       .  S
Al58        O718   1.790       .  S
C60         C379   1.492       .  S
C60         O715   1.260       .  A
C61         C467   1.478       .  S
C61          O62   1.263       .  A
O62        Al713   1.902       .  S
C63          N64   1.362       .  A
C63          N68   1.362       .  A
C63         C357   1.485       .  S
N64          C65   1.358   1_455  A
C65          N66   1.357       .  A
C65         C423   1.481       .  S
N66          C67   1.358       .  A
C67          N68   1.360   1_655  A
C67         C413   1.484       .  S
C69          N70   1.362       .  A
C69          N74   1.357       .  A
C69         C347   1.484       .  S
N70          C71   1.363       .  A
C71          N72   1.358       .  A
C71         C325   1.481       .  S
N72          C73   1.357       .  A
C73          N74   1.353       .  A
C73         C303   1.480       .  S
O75          C90   1.263       .  A
O75        Al747   1.898       .  S
C76         C643   1.484       .  S
C76          O86   1.259       .  A
C76         O741   1.264   1_554  A
O77         C740   1.264       .  A
O77         Al79   1.918       .  S
O78          C80   1.257       .  A
O78         Al79   1.893       .  S
Al79         O87   1.883       .  S
Al79         O89   1.906       .  S
Al79        O752   1.787       .  S
C80         C313   1.479       .  S
C80          O93   1.261       .  A
O81          C91   1.263       .  A
O81         Al83   1.907       .  S
O82          C95   1.261       .  A
O82         Al92   1.896       .  S
Al83         O96   1.920       .  S
Al83        O739   1.898   1_554  S
Al83        O757   1.909   1_554  S
Al83         O88   1.790       .  S
O84          C91   1.262       .  A
O84         Al92   1.895       .  S
O85          C94   1.261       .  A
O85         Al92   1.914       .  S
O86         Al92   1.889       .  S
O87         C758   1.256       .  A
O88         Al92   1.784       .  S
O88        Al743   1.787   1_554  S
O89          C90   1.264       .  A
C90         C281   1.477       .  S
C91         C291   1.476       .  S
O93        Al747   1.909       .  S
C94         C225   1.480       .  S
C94         O751   1.256   1_554  A
C95         C259   1.483       .  S
C95          O96   1.263       .  A
C97          N98   1.364       .  A
C97         N102   1.362       .  A
C97         C523   1.485       .  S
N98          C99   1.360       .  A
C99         N100   1.355       .  A
C99         C247   1.476       .  S
N100        C101   1.355       .  A
C101        N102   1.359       .  A
C101        C269   1.479       .  S
C103        N104   1.354   1_556  A
C103        N772   1.364       .  A
C103        C237   1.486       .  S
N104        C105   1.352       .  A
C105        N106   1.358   1_554  A
C105        C215   1.482       .  S
N106        C771   1.363       .  A
C107        N108   1.366       .  A
C107        N770   1.363       .  A
C107        C193   1.489       .  S
N108        C767   1.364       .  A
O109        C124   1.263       .  A
O109       Al117   1.907       .  S
C110        C335   1.480       .  S
C110        O120   1.256       .  A
C110        O111   1.262       .  A
O111       Al113   1.914       .  S
O112        C114   1.263       .  A
O112       Al113   1.902       .  S
Al113       O121   1.883       .  S
Al113       O123   1.896       .  S
Al113       O122   1.788       .  S
C114        C171   1.484       .  S
C114        O127   1.264       .  A
O115        C125   1.264       .  A
O115       Al117   1.905       .  S
O116        C129   1.256       .  A
O116       Al126   1.890       .  S
Al117       O130   1.922       .  S
Al117       O127   1.926       .  S
Al117       O122   1.791       .  S
O118        C125   1.265       .  A
O118       Al126   1.905       .  S
O119        C128   1.262       .  A
O119       Al126   1.913       .  S
O120       Al126   1.887       .  S
O121        C128   1.257       .  A
O122       Al126   1.790       .  S
O123        C124   1.261       .  A
C124        C203   1.477       .  S
C125        C137   1.482       .  S
C128        C369   1.481       .  S
C129        C181   1.483       .  S
C129        O130   1.262       .  A
C131        N136   1.369   1_556  A
C131        N796   1.365       .  A
C131        C391   1.494       .  S
N132        C133   1.359       .  A
N132        C795   1.365       .  A
C133        N798   1.354       .  A
C133        C149   1.483       .  S
N134        C135   1.354   1_556  A
N134        C797   1.354       .  A
C135        N136   1.364       .  A
C135        C159   1.492       .  S
C137        C138   1.401       .  A
C137        C142   1.402       .  A
C138        C139   1.401       .  A
C138        H151   1.083       .  S
C139        C140   1.416       .  A
C139        H152   1.077       .  S
C140        C146   1.432       .  A
C140        C141   1.422       .  A
C141        C143   1.398       .  A
C141        C142   1.401       .  A
C142        H153   1.085       .  S
C143        C144   1.386       .  A
C143        H154   1.084       .  S
C144        C145   1.398       .  A
C144        H155   1.084       .  S
C145        C146   1.422       .  A
C145        C150   1.400       .  A
C146        C147   1.417       .  A
C147        C148   1.402       .  A
C147        H156   1.078       .  S
C148        C149   1.401       .  A
C148        H157   1.083       .  S
C149        C150   1.402       .  A
C150        H158   1.085       .  S
C159        C160   1.402       .  A
C159        C164   1.406       .  A
C160        C161   1.406       .  A
C160        H173   1.083       .  S
C161        C162   1.419       .  A
C161        H174   1.078       .  S
C162        C168   1.436       .  A
C162        C163   1.421       .  A
C163        C165   1.400       .  A
C163        C164   1.403       .  A
C164        H175   1.084       .  S
C165        C166   1.388       .  A
C165        H176   1.084       .  S
C166        C167   1.399       .  A
C166        H177   1.084       .  S
C167        C168   1.424       .  A
C167        C172   1.406       .  A
C168        C169   1.416       .  A
C169        C170   1.403       .  A
C169        H178   1.078       .  S
C170        C171   1.402       .  A
C170        H179   1.083       .  S
C171        C172   1.401       .  A
C172        H180   1.085       .  S
C181        C182   1.401       .  A
C181        C186   1.403       .  A
C182        C183   1.400       .  A
C182        H195   1.083       .  S
C183        C184   1.416       .  A
C183        H196   1.077       .  S
C184        C190   1.434       .  A
C184        C185   1.423       .  A
C185        C187   1.399       .  A
C185        C186   1.406       .  A
C186        H197   1.085       .  S
C187        C188   1.389       .  A
C187        H198   1.084       .  S
C188        C189   1.400       .  A
C188        H199   1.084       .  S
C189        C190   1.422       .  A
C189        C194   1.405       .  A
C190        C191   1.416       .  A
C191        C192   1.401       .  A
C191        H200   1.078       .  S
C192        C193   1.402       .  A
C192        H201   1.083       .  S
C193        C194   1.404       .  A
C194        H202   1.084       .  S
C203        C204   1.398       .  A
C203        C208   1.403       .  A
C204        C205   1.398       .  A
C204        H217   1.083       .  S
C205        C206   1.418       .  A
C205        H218   1.077       .  S
C206        C212   1.428       .  A
C206        C207   1.420       .  A
C207        C209   1.399       .  A
C207        C208   1.400       .  A
C208        H219   1.085       .  S
C209        C210   1.389       .  A
C209        H220   1.084       .  S
C210        C211   1.399       .  A
C210        H221   1.084       .  S
C211        C212   1.424       .  A
C211        C216   1.406       .  A
C212        C213   1.411       .  A
C213        C214   1.393       .  A
C213        H222   1.077       .  S
C214        C215   1.403       .  A
C214        H223   1.083       .  S
C215        C216   1.401       .  A
C216        H224   1.084       .  S
C225        C226   1.400       .  A
C225        C894   1.402   1_554  A
C226        C227   1.398       .  A
C226        H239   1.084       .  S
C227        C892   1.417       .  A
C227        H240   1.077       .  S
C228        C234   1.430       .  A
C228        C229   1.421       .  A
C228        C891   1.417       .  A
C229        C231   1.400       .  A
C229        C230   1.403       .  A
C230        C889   1.402       .  A
C230        H241   1.084       .  S
C231        C232   1.390       .  A
C231        H242   1.084       .  S
C232        C233   1.399       .  A
C232        H243   1.084       .  S
C233        C234   1.424       .  A
C233        C238   1.409       .  A
C234        C899   1.411       .  A
C235        C236   1.393       .  A
C235        C898   1.411       .  A
C235        H244   1.077       .  S
C236        C237   1.405   1_554  A
C236        H245   1.083       .  S
C237        C902   1.401       .  A
C238        C901   1.401       .  A
C238        H246   1.084       .  S
C247        C248   1.399       .  A
C247        C252   1.401       .  A
C248        C249   1.394       .  A
C248        H261   1.084       .  S
C249        C250   1.414       .  A
C249        H262   1.077       .  S
C250        C256   1.430       .  A
C250        C251   1.424       .  A
C251        C253   1.400       .  A
C251        C252   1.409       .  A
C252        H263   1.084       .  S
C253        C254   1.392       .  A
C253        H264   1.084       .  S
C254        C255   1.401       .  A
C254        H265   1.084       .  S
C255        C256   1.421       .  A
C255        C260   1.407       .  A
C256        C257   1.415       .  A
C257        C258   1.396       .  A
C257        H266   1.077       .  S
C258        C259   1.400       .  A
C258        H267   1.083       .  S
C259        C260   1.405       .  A
C260        H268   1.084       .  S
C269        C270   1.400       .  A
C269        C274   1.402       .  A
C270        C271   1.393       .  A
C270        H283   1.083       .  S
C271        C272   1.413       .  A
C271        H284   1.077       .  S
C272        C278   1.428       .  A
C272        C273   1.423       .  A
C273        C275   1.400       .  A
C273        C274   1.407       .  A
C274        H285   1.084       .  S
C275        C276   1.391       .  A
C275        H286   1.084       .  S
C276        C277   1.399       .  A
C276        H287   1.084       .  S
C277        C278   1.422       .  A
C277        C282   1.405       .  A
C278        C279   1.414       .  A
C279        C280   1.393       .  A
C279        H288   1.077       .  S
C280        C281   1.400       .  A
C280        H289   1.084       .  S
C281        C282   1.401       .  A
C282        H290   1.084       .  S
C291        C292   1.400       .  A
C291        C296   1.401       .  A
C292        C293   1.401       .  A
C292        H305   1.083       .  S
C293        C294   1.418       .  A
C293        H306   1.078       .  S
C294        C300   1.429       .  A
C294        C295   1.420       .  A
C295        C297   1.398       .  A
C295        C296   1.396       .  A
C296        H307   1.085       .  S
C297        C298   1.385       .  A
C297        H308   1.084       .  S
C298        C299   1.397       .  A
C298        H309   1.084       .  S
C299        C300   1.423       .  A
C299        C304   1.401       .  A
C300        C301   1.413       .  A
C301        C302   1.397       .  A
C301        H310   1.078       .  S
C302        C303   1.403       .  A
C302        H311   1.083       .  S
C303        C304   1.399       .  A
C304        H312   1.084       .  S
C313        C314   1.400       .  A
C313        C318   1.403       .  A
C314        C315   1.395       .  A
C314        H327   1.083       .  S
C315        C316   1.414       .  A
C315        H328   1.077       .  S
C316        C322   1.430       .  A
C316        C317   1.423       .  A
C317        C319   1.400       .  A
C317        C318   1.406       .  A
C318        H329   1.085       .  S
C319        C320   1.391       .  A
C319        H330   1.084       .  S
C320        C321   1.400       .  A
C320        H331   1.084       .  S
C321        C322   1.421       .  A
C321        C326   1.405       .  A
C322        C323   1.416       .  A
C323        C324   1.397       .  A
C323        H332   1.077       .  S
C324        C325   1.399       .  A
C324        H333   1.083       .  S
C325        C326   1.404       .  A
C326        H334   1.085       .  S
C335        C336   1.398       .  A
C335        C340   1.404       .  A
C336        C337   1.394       .  A
C336        H349   1.083       .  S
C337        C338   1.416   1_565  A
C337        H350   1.076   1_565  S
C338        C344   1.429       .  A
C338        C339   1.421   1_545  A
C339        C341   1.401   1_565  A
C339        C340   1.407       .  A
C340        H351   1.084       .  S
C341        C342   1.392       .  A
C341        H352   1.084   1_545  S
C342        C343   1.400       .  A
C342        H353   1.084       .  S
C343        C344   1.423       .  A
C343        C348   1.409       .  A
C344        C345   1.411       .  A
C345        C346   1.391       .  A
C345        H354   1.076       .  S
C346        C347   1.402       .  A
C346        H355   1.083       .  S
C347        C348   1.403       .  A
C348        H356   1.084       .  S
C357        C358   1.402       .  A
C357        C362   1.404       .  A
C358        C359   1.395       .  A
C358        H371   1.083       .  S
C359        C360   1.414       .  A
C359        H372   1.077       .  S
C360        C366   1.430       .  A
C360        C361   1.422       .  A
C361        C363   1.400       .  A
C361        C362   1.406       .  A
C362        H373   1.084       .  S
C363        C364   1.390       .  A
C363        H374   1.084       .  S
C364        C365   1.400       .  A
C364        H375   1.084       .  S
C365        C366   1.422       .  A
C365        C370   1.405       .  A
C366        C367   1.415       .  A
C367        C368   1.395       .  A
C367        H376   1.077       .  S
C368        C369   1.400       .  A
C368        H377   1.083       .  S
C369        C370   1.403       .  A
C370        H378   1.085       .  S
C379        C380   1.404   1_556  A
C379       C1048   1.405       .  A
C380        C381   1.398       .  A
C380        H393   1.083       .  S
C381        C382   1.414   1_554  A
C381        H394   1.078       .  S
C382        C388   1.435       .  A
C382        C383   1.424       .  A
C383       C1049   1.400       .  A
C383       C1048   1.411       .  A
C384       C1043   1.405       .  A
C384       C1047   1.411       .  A
C384        H395   1.084       .  S
C385        C386   1.392       .  A
C385       C1047   1.400       .  A
C385        H396   1.084       .  S
C386       C1051   1.401       .  A
C386        H397   1.084       .  S
C387        C388   1.422       .  A
C387       C1050   1.401       .  A
C387       C1056   1.409       .  A
C388        C389   1.416   1_556  A
C389        C390   1.400       .  A
C389        H398   1.078       .  S
C390        C391   1.403   1_554  A
C390        H399   1.083       .  S
C391       C1056   1.407       .  A
C392       C1051   1.409       .  A
C392       C1055   1.407       .  A
C392        H400   1.084       .  S
C401        C402   1.401       .  A
C401        C406   1.402       .  A
C402        C403   1.395       .  A
C402        H415   1.084       .  S
C403        C404   1.414       .  A
C403        H416   1.077       .  S
C404        C410   1.431       .  A
C404        C405   1.423       .  A
C405        C407   1.400       .  A
C405        C406   1.408       .  A
C406        H417   1.084       .  S
C407        C408   1.392       .  A
C407        H418   1.084       .  S
C408        C409   1.400       .  A
C408        H419   1.084       .  S
C409        C410   1.422       .  A
C409        C414   1.408       .  A
C410        C411   1.415       .  A
C411        C412   1.396       .  A
C411        H420   1.077       .  S
C412        C413   1.401       .  A
C412        H421   1.083       .  S
C413        C414   1.403       .  A
C414        H422   1.084       .  S
C423        C424   1.400       .  A
C423        C428   1.401       .  A
C424        C425   1.399       .  A
C424        H437   1.083       .  S
C425        C426   1.417       .  A
C425        H438   1.077       .  S
C426        C432   1.432       .  A
C426        C427   1.422       .  A
C427        C429   1.399       .  A
C427        C428   1.404       .  A
C428        H439   1.085       .  S
C429        C430   1.390       .  A
C429        H440   1.084       .  S
C430        C431   1.399       .  A
C430        H441   1.084       .  S
C431        C432   1.424       .  A
C431        C436   1.408       .  A
C432        C433   1.414       .  A
C433        C434   1.397       .  A
C433        H442   1.077       .  S
C434        C435   1.403       .  A
C434        H443   1.083       .  S
C435        C436   1.402       .  A
C436        H444   1.084       .  S
C445        C446   1.399       .  A
C445        C450   1.399       .  A
C446        C447   1.394       .  A
C446        H459   1.084       .  S
C447        C448   1.414       .  A
C447        H460   1.077       .  S
C448        C454   1.428       .  A
C448        C449   1.423       .  A
C449        C451   1.399       .  A
C449        C450   1.405       .  A
C450        H461   1.085       .  S
C451        C452   1.389       .  A
C451        H462   1.084       .  S
C452        C453   1.399       .  A
C452        H463   1.084       .  S
C453        C454   1.422       .  A
C453        C458   1.403       .  A
C454        C455   1.414       .  A
C455        C456   1.394       .  A
C455        H464   1.077       .  S
C456        C457   1.400       .  A
C456        H465   1.083       .  S
C457        C458   1.401       .  A
C458        H466   1.085       .  S
C467        C468   1.400       .  A
C467        C472   1.401       .  A
C468        C469   1.399       .  A
C468        H481   1.083       .  S
C469        C470   1.416       .  A
C469        H482   1.077       .  S
C470        C476   1.429       .  A
C470        C471   1.421       .  A
C471        C473   1.398       .  A
C471        C472   1.400       .  A
C472        H483   1.085       .  S
C473        C474   1.387       .  A
C473        H484   1.084       .  S
C474        C475   1.398       .  A
C474        H485   1.084       .  S
C475        C476   1.422       .  A
C475        C480   1.401       .  A
C476        C477   1.415       .  A
C477        C478   1.397       .  A
C477        H486   1.077       .  S
C478        C479   1.402       .  A
C478        H487   1.083       .  S
C479        C480   1.401       .  A
C480        H488   1.084       .  S
C489        C490   1.401       .  A
C489       C1158   1.400   1_554  A
C490        C491   1.393       .  A
C490        H503   1.084       .  S
C491        C492   1.413       .  A
C491        H504   1.077       .  S
C492        C498   1.429       .  A
C492        C493   1.424   1_554  A
C493       C1159   1.399       .  A
C493       C1158   1.405       .  A
C494       C1153   1.400       .  A
C494       C1157   1.405       .  A
C494        H505   1.085       .  S
C495        C496   1.389       .  A
C495       C1157   1.399       .  A
C495        H506   1.084       .  S
C496       C1161   1.400       .  A
C496        H507   1.084       .  S
C497        C498   1.421   1_556  A
C497       C1160   1.400       .  A
C497       C1166   1.403       .  A
C498        C499   1.415       .  A
C499        C500   1.396       .  A
C499        H508   1.077       .  S
C500        C501   1.401       .  A
C500        H509   1.083       .  S
C501       C1166   1.403   1_554  A
C502       C1161   1.403       .  A
C502       C1165   1.403       .  A
C502        H510   1.084       .  S
C511        C512   1.401       .  A
C511        C516   1.403       .  A
C512        C513   1.395       .  A
C512        H525   1.083       .  S
C513        C514   1.414       .  A
C513        H526   1.077       .  S
C514        C520   1.431       .  A
C514        C515   1.423       .  A
C515        C517   1.400       .  A
C515        C516   1.407       .  A
C516        H527   1.085       .  S
C517        C518   1.391       .  A
C517        H528   1.084       .  S
C518        C519   1.400       .  A
C518        H529   1.084       .  S
C519        C520   1.422       .  A
C519        C524   1.406   1_655  A
C520        C521   1.416       .  A
C521        C522   1.397   1_655  A
C521        H530   1.077       .  S
C522        C523   1.401       .  A
C522        H531   1.083       .  S
C523        C524   1.404       .  A
C524        H532   1.084       .  S
C533        C534   1.401       .  A
C533        C538   1.401       .  A
C534        C535   1.395       .  A
C534        H547   1.083       .  S
C535        C536   1.414       .  A
C535        H548   1.077       .  S
C536        C542   1.430       .  A
C536        C537   1.423       .  A
C537        C539   1.399       .  A
C537        C538   1.406       .  A
C538        H549   1.084       .  S
C539        C540   1.389       .  A
C539        H550   1.084       .  S
C540        C541   1.399       .  A
C540        H551   1.084       .  S
C541        C542   1.421       .  A
C541        C546   1.403       .  A
C542        C543   1.416       .  A
C543        C544   1.397       .  A
C543        H552   1.077       .  S
C544        C545   1.401       .  A
C544        H553   1.083       .  S
C545        C546   1.403       .  A
C546        H554   1.084       .  S
C555        C556   1.400       .  A
C555        C560   1.402       .  A
C556        C557   1.399       .  A
C556        H569   1.083       .  S
C557        C558   1.416       .  A
C557        H570   1.078       .  S
C558        C564   1.430       .  A
C558        C559   1.422       .  A
C559        C561   1.400       .  A
C559        C560   1.405       .  A
C560        H571   1.085       .  S
C561        C562   1.391       .  A
C561        H572   1.084       .  S
C562        C563   1.399       .  A
C562        H573   1.084       .  S
C563        C564   1.422       .  A
C563        C568   1.406       .  A
C564        C565   1.414       .  A
C565        C566   1.397       .  A
C565        H574   1.078       .  S
C566        C567   1.402       .  A
C566        H575   1.083       .  S
C567        C568   1.403       .  A
C568        H576   1.084       .  S
C577        C578   1.401       .  A
C577        C582   1.401       .  A
C578        C579   1.403       .  A
C578        H591   1.083       .  S
C579        C580   1.419       .  A
C579        H592   1.078       .  S
C580        C586   1.432       .  A
C580        C581   1.421       .  A
C581        C583   1.398       .  A
C581        C582   1.398       .  A
C582        H593   1.085       .  S
C583        C584   1.386       .  A
C583        H594   1.084       .  S
C584        C585   1.397       .  A
C584        H595   1.084       .  S
C585        C586   1.424       .  A
C585        C590   1.403       .  A
C586        C587   1.414       .  A
C587        C588   1.399       .  A
C587        H596   1.078       .  S
C588        C589   1.405       .  A
C588        H597   1.083       .  S
C589        C590   1.400       .  A
C590        H598   1.084       .  S
C599        C600   1.401       .  A
C599        C604   1.400       .  A
C600        C601   1.398       .  A
C600        H613   1.083       .  S
C601        C602   1.416       .  A
C601        H614   1.077       .  S
C602        C608   1.430       .  A
C602        C603   1.422       .  A
C603        C605   1.399       .  A
C603        C604   1.402       .  A
C604        H615   1.085       .  S
C605        C606   1.388       .  A
C605        H616   1.084       .  S
C606        C607   1.399       .  A
C606        H617   1.084       .  S
C607        C608   1.422       .  A
C607        C612   1.403       .  A
C608        C609   1.415       .  A
C609        C610   1.397       .  A
C609        H618   1.077       .  S
C610        C611   1.400       .  A
C610        H619   1.083       .  S
C611        C612   1.402       .  A
C612        H620   1.085       .  S
C621        C622   1.403       .  A
C621        C626   1.403       .  A
C622        C623   1.398       .  A
C622        H635   1.083       .  S
C623        C624   1.414       .  A
C623        H636   1.077       .  S
C624        C630   1.434       .  A
C624        C625   1.424       .  A
C625        C627   1.399       .  A
C625        C626   1.409       .  A
C626        H637   1.084       .  S
C627        C628   1.390       .  A
C627        H638   1.084       .  S
C628        C629   1.400       .  A
C628        H639   1.084       .  S
C629        C630   1.422       .  A
C629        C634   1.406       .  A
C630        C631   1.418       .  A
C631        C632   1.401       .  A
C631        H640   1.077       .  S
C632        C633   1.399       .  A
C632        H641   1.083       .  S
C633        C634   1.402       .  A
C634        H642   1.085       .  S
C643        C644   1.402       .  A
C643       C1312   1.403   1_554  A
C644        C645   1.397       .  A
C644        H657   1.083       .  S
C645       C1310   1.415       .  A
C645        H658   1.077       .  S
C646        C652   1.432       .  A
C646        C647   1.422       .  A
C646       C1309   1.415       .  A
C647        C649   1.399       .  A
C647        C648   1.406       .  A
C648       C1307   1.403       .  A
C648        H659   1.084       .  S
C649        C650   1.390       .  A
C649        H660   1.084       .  S
C650        C651   1.399       .  A
C650        H661   1.084       .  S
C651        C652   1.423       .  A
C651        C656   1.407       .  A
C652       C1317   1.414       .  A
C653        C654   1.396       .  A
C653       C1316   1.414       .  A
C653        H662   1.077       .  S
C654        C655   1.403       .  A
C654        H663   1.083       .  S
C655       C1320   1.402   1_554  A
C656       C1319   1.402       .  A
C656        H664   1.084       .  S
C665        N670   1.360       .  A
C665       C1319   1.486       .  S
N666        C667   1.362       .  A
C667        N668   1.357   1_556  A
C667       C1297   1.480       .  S
C669        N670   1.357       .  A
C669       C1263   1.479       .  S
O671        C686   1.265       .  A
O671       Al679   1.920       .  S
C672       C1175   1.483       .  S
C672        O682   1.263       .  A
C672        O673   1.260       .  A
O673       Al675   1.898       .  S
O674        C676   1.262       .  A
O674       Al675   1.902       .  S
Al675       O683   1.923       .  S
Al675       O685   1.910       .  S
Al675       O684   1.784       .  S
C676       C1241   1.482       .  S
C676        O689   1.262       .  A
O677        C687   1.262       .  A
O677       Al679   1.920       .  S
O678        C691   1.264       .  A
O678       Al688   1.912       .  S
Al679       O692   1.897       .  S
Al679       O689   1.910       .  S
Al679       O684   1.787       .  S
O680        C687   1.257       .  A
O680       Al688   1.890       .  S
O681        C690   1.257       .  A
O681       Al688   1.885       .  S
O682       Al688   1.914       .  S
O683        C690   1.263       .  A
O684       Al688   1.784       .  S
O685        C686   1.265       .  A
C686       C1285   1.487       .  S
C687       C1231   1.483       .  S
C690       C1197   1.481       .  S
C691       C1275   1.479       .  S
C691        O692   1.263       .  A
C693        N698   1.360       .  A
C693       C1165   1.482       .  S
N694        C695   1.356       .  A
C695       C1253   1.486       .  S
N696        C697   1.360       .  A
C697        N698   1.359       .  A
C697       C1219   1.479       .  S
C699        N700   1.360   1_545  A
C699        N704   1.361   1_545  A
C699       C1209   1.483       .  S
N700        C701   1.357       .  A
C701        N702   1.356       .  A
C701       C1143   1.481       .  S
N702        C703   1.356       .  A
C703        N704   1.359       .  A
C703       C1109   1.472       .  S
O705        C720   1.261       .  A
O705       Al713   1.911       .  S
C706       C1153   1.477       .  S
C706        O707   1.255       .  A
O707       Al709   1.871       .  S
O708        C710   1.264       .  A
O708       Al709   1.914       .  S
Al709       O717   1.917       .  S
Al709       O719   1.886       .  S
Al709       O718   1.787       .  S
C710       C1065   1.481       .  S
C710        O723   1.263       .  A
O711        C721   1.261       .  A
O712        C725   1.263       .  A
O712       Al722   1.902       .  S
Al713       O723   1.904       .  S
Al713       O718   1.792       .  S
O714        C721   1.262       .  A
O714       Al722   1.908       .  S
O715       Al722   1.908       .  S
O716       Al722   1.922       .  S
O717        C724   1.262       .  A
O719        C720   1.257       .  A
C720       C1121   1.477       .  S
C721       C1099   1.484       .  S
C724       C1043   1.492       .  S
C725       C1131   1.478       .  S
C725        O726   1.263       .  A
C727        N728   1.362       .  A
C727        N732   1.362       .  A
C727       C1021   1.485       .  S
N728        C729   1.358   1_455  A
C729        N730   1.357       .  A
C729       C1087   1.481       .  S
N730        C731   1.358       .  A
C731        N732   1.360   1_655  A
C731       C1077   1.484       .  S
C733        N734   1.362       .  A
C733        N738   1.357       .  A
C733       C1011   1.484       .  S
N734        C735   1.363       .  A
C735        N736   1.358       .  A
C735        C989   1.481       .  S
N736        C737   1.357       .  A
C737        N738   1.353       .  A
C737        C967   1.480       .  S
O739        C754   1.263       .  A
C740       C1307   1.484       .  S
C740        O750   1.259       .  A
O741       Al743   1.918       .  S
O742        C744   1.257       .  A
O742       Al743   1.893       .  S
Al743       O751   1.883       .  S
Al743       O753   1.906       .  S
C744        C977   1.479       .  S
C744        O757   1.261       .  A
O745        C755   1.263       .  A
O745       Al747   1.907       .  S
O746        C759   1.261       .  A
O746       Al756   1.896       .  S
Al747       O760   1.920       .  S
Al747       O752   1.790       .  S
O748        C755   1.262       .  A
O748       Al756   1.895       .  S
O749        C758   1.261       .  A
O749       Al756   1.914       .  S
O750       Al756   1.889       .  S
O752       Al756   1.784       .  S
O753        C754   1.264       .  A
C754        C945   1.477       .  S
C755        C955   1.476       .  S
C758        C889   1.480       .  S
C759        C923   1.483       .  S
C759        O760   1.263       .  A
C761        N762   1.364       .  A
C761        N766   1.362       .  A
C761       C1187   1.485       .  S
N762        C763   1.360       .  A
C763        N764   1.355       .  A
C763        C911   1.476       .  S
N764        C765   1.355       .  A
C765        N766   1.359       .  A
C765        C933   1.479       .  S
C767        N768   1.354       .  A
C767        C901   1.486       .  S
N768        C769   1.352       .  A
C769        N770   1.358       .  A
C769        C879   1.482       .  S
C771        N772   1.366       .  A
C771        C857   1.489       .  S
O773        C788   1.263       .  A
O773       Al781   1.907       .  S
C774        C999   1.480       .  S
C774        O784   1.256       .  A
C774        O775   1.262       .  A
O775       Al777   1.914       .  S
O776        C778   1.263       .  A
O776       Al777   1.902       .  S
Al777       O785   1.883       .  S
Al777       O787   1.896       .  S
Al777       O786   1.788       .  S
C778        C835   1.484       .  S
C778        O791   1.264       .  A
O779        C789   1.264       .  A
O779       Al781   1.905       .  S
O780        C793   1.256       .  A
O780       Al790   1.890       .  S
Al781       O794   1.922       .  S
Al781       O791   1.926       .  S
Al781       O786   1.791       .  S
O782        C789   1.265       .  A
O782       Al790   1.905       .  S
O783        C792   1.262       .  A
O783       Al790   1.913       .  S
O784       Al790   1.887       .  S
O785        C792   1.257       .  A
O786       Al790   1.790       .  S
O787        C788   1.261       .  A
C788        C867   1.477       .  S
C789        C801   1.482       .  S
C792       C1033   1.481       .  S
C793        C845   1.483       .  S
C793        O794   1.262       .  A
C795        N800   1.369       .  A
C795       C1055   1.494       .  S
N796        C797   1.359       .  A
C797        C813   1.483       .  S
N798        C799   1.354       .  A
C799        N800   1.364       .  A
C799        C823   1.492       .  S
C801        C802   1.401       .  A
C801        C806   1.402       .  A
C802        C803   1.401       .  A
C802        H815   1.083       .  S
C803        C804   1.416       .  A
C803        H816   1.077       .  S
C804        C810   1.432       .  A
C804        C805   1.422       .  A
C805        C807   1.398       .  A
C805        C806   1.401       .  A
C806        H817   1.085       .  S
C807        C808   1.386       .  A
C807        H818   1.084       .  S
C808        C809   1.398       .  A
C808        H819   1.084       .  S
C809        C810   1.422       .  A
C809        C814   1.400       .  A
C810        C811   1.417       .  A
C811        C812   1.402       .  A
C811        H820   1.078       .  S
C812        C813   1.401       .  A
C812        H821   1.083       .  S
C813        C814   1.402       .  A
C814        H822   1.085       .  S
C823        C824   1.402       .  A
C823        C828   1.406       .  A
C824        C825   1.406       .  A
C824        H837   1.083       .  S
C825        C826   1.419       .  A
C825        H838   1.078       .  S
C826        C832   1.436       .  A
C826        C827   1.421       .  A
C827        C829   1.400       .  A
C827        C828   1.403       .  A
C828        H839   1.084       .  S
C829        C830   1.388       .  A
C829        H840   1.084       .  S
C830        C831   1.399       .  A
C830        H841   1.084       .  S
C831        C832   1.424       .  A
C831        C836   1.406       .  A
C832        C833   1.416       .  A
C833        C834   1.403       .  A
C833        H842   1.078       .  S
C834        C835   1.402       .  A
C834        H843   1.083       .  S
C835        C836   1.401       .  A
C836        H844   1.085       .  S
C845        C846   1.401       .  A
C845        C850   1.403       .  A
C846        C847   1.400       .  A
C846        H859   1.083       .  S
C847        C848   1.416       .  A
C847        H860   1.077       .  S
C848        C854   1.434       .  A
C848        C849   1.423       .  A
C849        C851   1.399       .  A
C849        C850   1.406       .  A
C850        H861   1.085       .  S
C851        C852   1.389       .  A
C851        H862   1.084       .  S
C852        C853   1.400       .  A
C852        H863   1.084       .  S
C853        C854   1.422       .  A
C853        C858   1.405       .  A
C854        C855   1.416       .  A
C855        C856   1.401       .  A
C855        H864   1.078       .  S
C856        C857   1.402       .  A
C856        H865   1.083       .  S
C857        C858   1.404       .  A
C858        H866   1.084       .  S
C867        C868   1.398       .  A
C867        C872   1.403       .  A
C868        C869   1.398       .  A
C868        H881   1.083       .  S
C869        C870   1.418       .  A
C869        H882   1.077       .  S
C870        C876   1.428       .  A
C870        C871   1.420       .  A
C871        C873   1.399       .  A
C871        C872   1.400       .  A
C872        H883   1.085       .  S
C873        C874   1.389       .  A
C873        H884   1.084       .  S
C874        C875   1.399       .  A
C874        H885   1.084       .  S
C875        C876   1.424       .  A
C875        C880   1.406       .  A
C876        C877   1.411       .  A
C877        C878   1.393       .  A
C877        H886   1.077       .  S
C878        C879   1.403       .  A
C878        H887   1.083       .  S
C879        C880   1.401       .  A
C880        H888   1.084       .  S
C889        C890   1.400       .  A
C890        C891   1.398       .  A
C890        H903   1.084       .  S
C891        H904   1.077       .  S
C892        C898   1.430       .  A
C892        C893   1.421   1_554  A
C893        C895   1.400       .  A
C893        C894   1.403       .  A
C894        H905   1.084       .  S
C895        C896   1.390       .  A
C895        H906   1.084       .  S
C896        C897   1.399       .  A
C896        H907   1.084       .  S
C897        C898   1.424   1_556  A
C897        C902   1.409       .  A
C899        C900   1.393       .  A
C899        H908   1.077       .  S
C900        C901   1.405       .  A
C900        H909   1.083       .  S
C902        H910   1.084       .  S
C911        C912   1.399       .  A
C911        C916   1.401       .  A
C912        C913   1.394       .  A
C912        H925   1.084       .  S
C913        C914   1.414       .  A
C913        H926   1.077       .  S
C914        C920   1.430       .  A
C914        C915   1.424       .  A
C915        C917   1.400       .  A
C915        C916   1.409       .  A
C916        H927   1.084       .  S
C917        C918   1.392       .  A
C917        H928   1.084       .  S
C918        C919   1.401       .  A
C918        H929   1.084       .  S
C919        C920   1.421       .  A
C919        C924   1.407       .  A
C920        C921   1.415       .  A
C921        C922   1.396       .  A
C921        H930   1.077       .  S
C922        C923   1.400       .  A
C922        H931   1.083       .  S
C923        C924   1.405       .  A
C924        H932   1.084       .  S
C933        C934   1.400       .  A
C933        C938   1.402       .  A
C934        C935   1.393       .  A
C934        H947   1.083       .  S
C935        C936   1.413       .  A
C935        H948   1.077       .  S
C936        C942   1.428       .  A
C936        C937   1.423       .  A
C937        C939   1.400       .  A
C937        C938   1.407       .  A
C938        H949   1.084       .  S
C939        C940   1.391       .  A
C939        H950   1.084       .  S
C940        C941   1.399       .  A
C940        H951   1.084       .  S
C941        C942   1.422       .  A
C941        C946   1.405       .  A
C942        C943   1.414       .  A
C943        C944   1.393       .  A
C943        H952   1.077       .  S
C944        C945   1.400       .  A
C944        H953   1.084       .  S
C945        C946   1.401       .  A
C946        H954   1.084       .  S
C955        C956   1.400       .  A
C955        C960   1.401       .  A
C956        C957   1.401       .  A
C956        H969   1.083       .  S
C957        C958   1.418       .  A
C957        H970   1.078       .  S
C958        C964   1.429       .  A
C958        C959   1.420       .  A
C959        C961   1.398       .  A
C959        C960   1.396       .  A
C960        H971   1.085       .  S
C961        C962   1.385       .  A
C961        H972   1.084       .  S
C962        C963   1.397       .  A
C962        H973   1.084       .  S
C963        C964   1.423       .  A
C963        C968   1.401       .  A
C964        C965   1.413       .  A
C965        C966   1.397       .  A
C965        H974   1.078       .  S
C966        C967   1.403       .  A
C966        H975   1.083       .  S
C967        C968   1.399       .  A
C968        H976   1.084       .  S
C977        C978   1.400       .  A
C977        C982   1.403       .  A
C978        C979   1.395       .  A
C978        H991   1.083       .  S
C979        C980   1.414       .  A
C979        H992   1.077       .  S
C980        C986   1.430       .  A
C980        C981   1.423       .  A
C981        C983   1.400       .  A
C981        C982   1.406       .  A
C982        H993   1.085       .  S
C983        C984   1.391       .  A
C983        H994   1.084       .  S
C984        C985   1.400       .  A
C984        H995   1.084       .  S
C985        C986   1.421       .  A
C985        C990   1.405       .  A
C986        C987   1.416       .  A
C987        C988   1.397       .  A
C987        H996   1.077       .  S
C988        C989   1.399       .  A
C988        H997   1.083       .  S
C989        C990   1.404       .  A
C990        H998   1.085       .  S
C999       C1000   1.398       .  A
C999       C1004   1.404       .  A
C1000      C1001   1.394       .  A
C1000      H1013   1.083       .  S
C1001      C1002   1.416   1_565  A
C1001      H1014   1.076   1_565  S
C1002      C1008   1.429       .  A
C1002      C1003   1.421   1_545  A
C1003      C1005   1.401   1_565  A
C1003      C1004   1.407       .  A
C1004      H1015   1.084       .  S
C1005      C1006   1.392       .  A
C1005      H1016   1.084   1_545  S
C1006      C1007   1.400       .  A
C1006      H1017   1.084       .  S
C1007      C1008   1.423       .  A
C1007      C1012   1.409       .  A
C1008      C1009   1.411       .  A
C1009      C1010   1.391       .  A
C1009      H1018   1.076       .  S
C1010      C1011   1.402       .  A
C1010      H1019   1.083       .  S
C1011      C1012   1.403       .  A
C1012      H1020   1.084       .  S
C1021      C1022   1.402       .  A
C1021      C1026   1.404       .  A
C1022      C1023   1.395       .  A
C1022      H1035   1.083       .  S
C1023      C1024   1.414       .  A
C1023      H1036   1.077       .  S
C1024      C1030   1.430       .  A
C1024      C1025   1.422       .  A
C1025      C1027   1.400       .  A
C1025      C1026   1.406       .  A
C1026      H1037   1.084       .  S
C1027      C1028   1.390       .  A
C1027      H1038   1.084       .  S
C1028      C1029   1.400       .  A
C1028      H1039   1.084       .  S
C1029      C1030   1.422       .  A
C1029      C1034   1.405       .  A
C1030      C1031   1.415       .  A
C1031      C1032   1.395       .  A
C1031      H1040   1.077       .  S
C1032      C1033   1.400       .  A
C1032      H1041   1.083       .  S
C1033      C1034   1.403       .  A
C1034      H1042   1.085       .  S
C1043      C1044   1.404       .  A
C1044      C1045   1.398       .  A
C1044      H1057   1.083       .  S
C1045      C1046   1.414       .  A
C1045      H1058   1.078       .  S
C1046      C1052   1.435       .  A
C1046      C1047   1.424       .  A
C1048      H1059   1.084       .  S
C1049      C1050   1.392       .  A
C1049      H1060   1.084       .  S
C1050      H1061   1.084       .  S
C1051      C1052   1.422       .  A
C1052      C1053   1.416       .  A
C1053      C1054   1.400       .  A
C1053      H1062   1.078       .  S
C1054      C1055   1.403       .  A
C1054      H1063   1.083       .  S
C1056      H1064   1.084       .  S
C1065      C1066   1.401       .  A
C1065      C1070   1.402       .  A
C1066      C1067   1.395       .  A
C1066      H1079   1.084       .  S
C1067      C1068   1.414       .  A
C1067      H1080   1.077       .  S
C1068      C1074   1.431       .  A
C1068      C1069   1.423       .  A
C1069      C1071   1.400       .  A
C1069      C1070   1.408       .  A
C1070      H1081   1.084       .  S
C1071      C1072   1.392       .  A
C1071      H1082   1.084       .  S
C1072      C1073   1.400       .  A
C1072      H1083   1.084       .  S
C1073      C1074   1.422       .  A
C1073      C1078   1.408       .  A
C1074      C1075   1.415       .  A
C1075      C1076   1.396       .  A
C1075      H1084   1.077       .  S
C1076      C1077   1.401       .  A
C1076      H1085   1.083       .  S
C1077      C1078   1.403       .  A
C1078      H1086   1.084       .  S
C1087      C1088   1.400       .  A
C1087      C1092   1.401       .  A
C1088      C1089   1.399       .  A
C1088      H1101   1.083       .  S
C1089      C1090   1.417       .  A
C1089      H1102   1.077       .  S
C1090      C1096   1.432       .  A
C1090      C1091   1.422       .  A
C1091      C1093   1.399       .  A
C1091      C1092   1.404       .  A
C1092      H1103   1.085       .  S
C1093      C1094   1.390       .  A
C1093      H1104   1.084       .  S
C1094      C1095   1.399       .  A
C1094      H1105   1.084       .  S
C1095      C1096   1.424       .  A
C1095      C1100   1.408       .  A
C1096      C1097   1.414       .  A
C1097      C1098   1.397       .  A
C1097      H1106   1.077       .  S
C1098      C1099   1.403       .  A
C1098      H1107   1.083       .  S
C1099      C1100   1.402       .  A
C1100      H1108   1.084       .  S
C1109      C1110   1.399       .  A
C1109      C1114   1.399       .  A
C1110      C1111   1.394       .  A
C1110      H1123   1.084       .  S
C1111      C1112   1.414       .  A
C1111      H1124   1.077       .  S
C1112      C1118   1.428       .  A
C1112      C1113   1.423       .  A
C1113      C1115   1.399       .  A
C1113      C1114   1.405       .  A
C1114      H1125   1.085       .  S
C1115      C1116   1.389       .  A
C1115      H1126   1.084       .  S
C1116      C1117   1.399       .  A
C1116      H1127   1.084       .  S
C1117      C1118   1.422       .  A
C1117      C1122   1.403       .  A
C1118      C1119   1.414       .  A
C1119      C1120   1.394       .  A
C1119      H1128   1.077       .  S
C1120      C1121   1.400       .  A
C1120      H1129   1.083       .  S
C1121      C1122   1.401       .  A
C1122      H1130   1.085       .  S
C1131      C1132   1.400       .  A
C1131      C1136   1.401       .  A
C1132      C1133   1.399       .  A
C1132      H1145   1.083       .  S
C1133      C1134   1.416       .  A
C1133      H1146   1.077       .  S
C1134      C1140   1.429       .  A
C1134      C1135   1.421       .  A
C1135      C1137   1.398       .  A
C1135      C1136   1.400       .  A
C1136      H1147   1.085       .  S
C1137      C1138   1.387       .  A
C1137      H1148   1.084       .  S
C1138      C1139   1.398       .  A
C1138      H1149   1.084       .  S
C1139      C1140   1.422       .  A
C1139      C1144   1.401       .  A
C1140      C1141   1.415       .  A
C1141      C1142   1.397       .  A
C1141      H1150   1.077       .  S
C1142      C1143   1.402       .  A
C1142      H1151   1.083       .  S
C1143      C1144   1.401       .  A
C1144      H1152   1.084       .  S
C1153      C1154   1.401       .  A
C1154      C1155   1.393       .  A
C1154      H1167   1.084       .  S
C1155      C1156   1.413       .  A
C1155      H1168   1.077       .  S
C1156      C1162   1.429       .  A
C1156      C1157   1.424       .  A
C1158      H1169   1.085       .  S
C1159      C1160   1.389       .  A
C1159      H1170   1.084       .  S
C1160      H1171   1.084       .  S
C1161      C1162   1.421       .  A
C1162      C1163   1.415       .  A
C1163      C1164   1.396       .  A
C1163      H1172   1.077       .  S
C1164      C1165   1.401       .  A
C1164      H1173   1.083       .  S
C1166      H1174   1.084       .  S
C1175      C1176   1.401       .  A
C1175      C1180   1.403       .  A
C1176      C1177   1.395       .  A
C1176      H1189   1.083       .  S
C1177      C1178   1.414       .  A
C1177      H1190   1.077       .  S
C1178      C1184   1.431       .  A
C1178      C1179   1.423       .  A
C1179      C1181   1.400       .  A
C1179      C1180   1.407       .  A
C1180      H1191   1.085       .  S
C1181      C1182   1.391       .  A
C1181      H1192   1.084       .  S
C1182      C1183   1.400       .  A
C1182      H1193   1.084       .  S
C1183      C1184   1.422       .  A
C1183      C1188   1.406   1_655  A
C1184      C1185   1.416       .  A
C1185      C1186   1.397   1_655  A
C1185      H1194   1.077       .  S
C1186      C1187   1.401       .  A
C1186      H1195   1.083       .  S
C1187      C1188   1.404       .  A
C1188      H1196   1.084       .  S
C1197      C1198   1.401       .  A
C1197      C1202   1.401       .  A
C1198      C1199   1.395       .  A
C1198      H1211   1.083       .  S
C1199      C1200   1.414       .  A
C1199      H1212   1.077       .  S
C1200      C1206   1.430       .  A
C1200      C1201   1.423       .  A
C1201      C1203   1.399       .  A
C1201      C1202   1.406       .  A
C1202      H1213   1.085       .  S
C1203      C1204   1.389       .  A
C1203      H1214   1.084       .  S
C1204      C1205   1.399       .  A
C1204      H1215   1.084       .  S
C1205      C1206   1.421       .  A
C1205      C1210   1.403       .  A
C1206      C1207   1.416       .  A
C1207      C1208   1.397       .  A
C1207      H1216   1.077       .  S
C1208      C1209   1.401       .  A
C1208      H1217   1.083       .  S
C1209      C1210   1.403       .  A
C1210      H1218   1.084       .  S
C1219      C1220   1.400       .  A
C1219      C1224   1.402       .  A
C1220      C1221   1.399       .  A
C1220      H1233   1.083       .  S
C1221      C1222   1.416       .  A
C1221      H1234   1.078       .  S
C1222      C1228   1.430       .  A
C1222      C1223   1.422       .  A
C1223      C1225   1.400       .  A
C1223      C1224   1.405       .  A
C1224      H1235   1.085       .  S
C1225      C1226   1.391       .  A
C1225      H1236   1.084       .  S
C1226      C1227   1.399       .  A
C1226      H1237   1.084       .  S
C1227      C1228   1.422       .  A
C1227      C1232   1.406       .  A
C1228      C1229   1.414       .  A
C1229      C1230   1.397       .  A
C1229      H1238   1.078       .  S
C1230      C1231   1.402       .  A
C1230      H1239   1.083       .  S
C1231      C1232   1.403       .  A
C1232      H1240   1.084       .  S
C1241      C1242   1.401       .  A
C1241      C1246   1.401       .  A
C1242      C1243   1.403       .  A
C1242      H1255   1.083       .  S
C1243      C1244   1.419       .  A
C1243      H1256   1.078       .  S
C1244      C1250   1.432       .  A
C1244      C1245   1.421       .  A
C1245      C1247   1.398       .  A
C1245      C1246   1.398       .  A
C1246      H1257   1.085       .  S
C1247      C1248   1.386       .  A
C1247      H1258   1.084       .  S
C1248      C1249   1.397       .  A
C1248      H1259   1.084       .  S
C1249      C1250   1.424       .  A
C1249      C1254   1.403       .  A
C1250      C1251   1.414       .  A
C1251      C1252   1.399       .  A
C1251      H1260   1.078       .  S
C1252      C1253   1.405       .  A
C1252      H1261   1.083       .  S
C1253      C1254   1.400       .  A
C1254      H1262   1.084       .  S
C1263      C1264   1.401       .  A
C1263      C1268   1.400       .  A
C1264      C1265   1.398       .  A
C1264      H1277   1.083       .  S
C1265      C1266   1.416       .  A
C1265      H1278   1.077       .  S
C1266      C1272   1.430       .  A
C1266      C1267   1.422       .  A
C1267      C1269   1.399       .  A
C1267      C1268   1.402       .  A
C1268      H1279   1.085       .  S
C1269      C1270   1.388       .  A
C1269      H1280   1.084       .  S
C1270      C1271   1.399       .  A
C1270      H1281   1.084       .  S
C1271      C1272   1.422       .  A
C1271      C1276   1.403       .  A
C1272      C1273   1.415       .  A
C1273      C1274   1.397       .  A
C1273      H1282   1.077       .  S
C1274      C1275   1.400       .  A
C1274      H1283   1.083       .  S
C1275      C1276   1.402       .  A
C1276      H1284   1.085       .  S
C1285      C1286   1.403       .  A
C1285      C1290   1.403       .  A
C1286      C1287   1.398       .  A
C1286      H1299   1.083       .  S
C1287      C1288   1.414       .  A
C1287      H1300   1.077       .  S
C1288      C1294   1.434       .  A
C1288      C1289   1.424       .  A
C1289      C1291   1.399       .  A
C1289      C1290   1.409       .  A
C1290      H1301   1.084       .  S
C1291      C1292   1.390       .  A
C1291      H1302   1.084       .  S
C1292      C1293   1.400       .  A
C1292      H1303   1.084       .  S
C1293      C1294   1.422       .  A
C1293      C1298   1.406       .  A
C1294      C1295   1.418       .  A
C1295      C1296   1.401       .  A
C1295      H1304   1.077       .  S
C1296      C1297   1.399       .  A
C1296      H1305   1.083       .  S
C1297      C1298   1.402       .  A
C1298      H1306   1.085       .  S
C1307      C1308   1.402       .  A
C1308      C1309   1.397       .  A
C1308      H1321   1.083       .  S
C1309      H1322   1.077       .  S
C1310      C1316   1.432       .  A
C1310      C1311   1.422   1_554  A
C1311      C1313   1.399       .  A
C1311      C1312   1.406       .  A
C1312      H1323   1.084       .  S
C1313      C1314   1.390       .  A
C1313      H1324   1.084       .  S
C1314      C1315   1.399       .  A
C1314      H1325   1.084       .  S
C1315      C1316   1.423   1_556  A
C1315      C1320   1.407       .  A
C1317      C1318   1.396       .  A
C1317      H1326   1.077       .  S
C1318      C1319   1.403       .  A
C1318      H1327   1.083       .  S
C1320      H1328   1.084       .  S
