geometry optimzed in LAMMPS
_audit_creation_date              2020-11-30 
_audit_creation_method            'lammps2cif' 
_symmetry_space_group_name_H-M    'P1' 
_symmetry_Int_Tables_number       1 
_symmetry_cell_setting            triclinic 
loop_ 
_symmetry_equiv_pos_as_xyz 
  x,y,z 
_cell_length_a                    31.51959192 
_cell_length_b                    31.247347929627562 
_cell_length_c                    32.004492760953035 
_cell_angle_alpha                 90.02311851874337 
_cell_angle_beta                  90.79977474846517 
_cell_angle_gamma                 119.8724889095852 
loop_ 
_atom_site_label 
_atom_site_type_symbol 
_atom_site_fract_x 
_atom_site_fract_y 
_atom_site_fract_z 
_atom_site_charge 
C1          C  0.24022691  0.27573765  0.06394046     0.86500
C2          C  0.20560074  0.22777450  0.08580013    -0.53700
C3          C  0.22177274  0.19485537  0.09195653     0.09400
C4          C  0.27732794  0.21919069  0.07965945     0.20400
C5          C  0.28604055  0.30176645  0.09137263    -0.54500
C6          C  0.30641440  0.27277316  0.10138003     0.09500
C7          C  0.25821898  0.26165371  0.02624458    -0.54000
C8          C  0.27619786  0.23187307  0.03285990     0.10100
H9          H  0.16703620  0.21653956  0.08661317     0.14600
H10         H  0.29347671  0.19529598  0.08577760     0.00300
H11         H  0.30232899  0.34031283  0.09948812     0.14900
H12         H  0.25482046  0.27289371  0.99493802     0.14700
C13         C  0.01600622  0.26005993  0.06302986     0.86500
C14         C  0.00389064  0.29719460  0.08262170    -0.53700
C15         C  0.45546831  0.28147805  0.08955625     0.09400
C16         C  0.42359025  0.22481404  0.07936376     0.20400
C17         C  0.99680560  0.21624430  0.09245365    -0.54500
C18         C  0.44811972  0.19677464  0.10267152     0.09500
C19         C  0.48263843  0.23888118  0.02589156    -0.54000
C20         C  0.43550139  0.22253277  0.03274046     0.10100
H21         H  0.03124377  0.33612753  0.08225340     0.14600
H22         H  0.38406590  0.20944217  0.08548170     0.00300
H23         H  0.01876824  0.20010007  0.10129775     0.14900
H24         H  0.49616837  0.23987461  0.99477557     0.14700
C25         C  0.22378226  0.48474722  0.06376496     0.86500
C26         C  0.27285180  0.49786126  0.08418442    -0.53700
C27         C  0.30528122  0.04694736  0.09097885     0.09400
C28         C  0.28045145  0.07848310  0.07991264     0.20400
C29         C  0.19949477  0.50439605  0.09273903    -0.54500
C30         C  0.22836700  0.05384915  0.10274083     0.09500
C31         C  0.23541627  0.01727394  0.02635053    -0.49800
C32         C  0.26617068  0.06509068  0.03298782     0.10100
H33         H  0.28443289  0.47042599  0.08455381     0.14600
H34         H  0.30442056  0.11853225  0.08619710     0.00300
H35         H  0.16216429  0.48181230  0.10237998     0.14900
H36         H  0.22255137  0.00260536  0.99521266     0.14700
O37         O  0.07232625  0.32158315  0.02008656    -0.85300
O38         O  0.15501864  0.40597564  0.04302231    -0.82400
C39         C  0.20058230  0.43431214  0.04491021     0.98100
O40         O  0.22886656  0.42731114  0.02151764    -0.82400
O41         O  0.22956338  0.34427457  0.04442209    -0.85100
C42         C  0.21265557  0.29843354  0.04534521     1.02600
O43         O  0.17720699  0.26951695  0.02140426    -0.77800
O44         O  0.09325562  0.26793735  0.04240701    -0.78000
C45         C  0.06554110  0.28613859  0.04386424     1.02600
O46         O  0.10230213  0.34439223  0.93229404    -0.85300
O47         O  0.17742421  0.42640378  0.95526785    -0.82400
C48         C  0.20042573  0.41964150  0.92639059     0.98100
O49         O  0.22190572  0.39616750  0.93378853    -0.82400
O50         O  0.22799200  0.32075815  0.95695729    -0.85000
C51         C  0.19921099  0.29899818  0.92658781     1.02600
O52         O  0.15428791  0.27694202  0.93255008    -0.77900
O53         O  0.07219307  0.26961684  0.95459472    -0.78000
C54         C  0.07837027  0.29919772  0.92541446     1.02600
Cr55       Cr  0.12800421  0.37216003  0.98847198     1.93700
Cr56       Cr  0.22335479  0.37081851  0.98992637     1.93200
Cr57       Cr  0.12670665  0.27464520  0.98850211     1.39100
O58         O  0.15930388  0.33920073  0.99151355    -1.23100
N59         N  0.15715823  0.11213941  0.12146341    -0.03500
C60         C  0.18214622  0.13991932  0.08758493    -0.00900
C61         C  0.14675898  0.12978791  0.05665540    -0.23800
C62         C  0.10214680  0.10991300  0.07626691    -0.24000
C63         C  0.11030816  0.10469112  0.11799812    -0.01000
H64         H  0.15370355  0.14860708  0.02698748     0.12800
H65         H  0.07084541  0.11137188  0.06363078     0.12800
N66         N  0.16253542  0.07032729  0.13199368    -0.03500
C67         C  0.13939525  0.04482552  0.16741365    -0.00900
C68         C  0.17684902  0.55755760  0.19708363    -0.23800
C69         C  0.22027710  0.57571548  0.17565689    -0.24000
C70         C  0.20951466  0.07760454  0.13392643    -0.01000
H71         H  0.17184938  0.54119255  0.22774151     0.12800
H72         H  0.25234874  0.57530045  0.18766113     0.12800
N73         N  0.43647145  0.34581726  0.11945981    -0.03500
C74         C  0.47599128  0.39286673  0.11690764    -0.00900
C75         C  0.98859960  0.40121285  0.07530301    -0.23800
C76         C  0.96401399  0.35612471  0.05495988    -0.24000
C77         C  0.43946078  0.32065795  0.08536700    -0.01000
H78         H  0.02112717  0.43274241  0.06332295     0.12800
H79         H  0.97566854  0.34908253  0.02531805     0.12800
N80         N  0.38943387  0.34032971  0.12914640    -0.03500
C81         C  0.35059133  0.29271870  0.13127466    -0.00900
C82         C  0.34009176  0.28262473  0.17305120    -0.23800
C83         C  0.36455514  0.32715772  0.19437055    -0.24000
C84         C  0.38674337  0.36396513  0.16456995    -0.01000
H85         H  0.30880344  0.25005251  0.18520910     0.12800
H86         H  0.35382634  0.33258665  0.22504744     0.12800
C87         C  0.30347408  0.41755337  0.18929728     0.86500
C88         C  0.32138858  0.46131629  0.15979509    -0.53700
C89         C  0.37052589  0.48298756  0.15019695     0.09400
C90         C  0.39697993  0.45815779  0.17420386     0.20400
C91         C  0.31863230  0.38234607  0.17033201    -0.54500
C92         C  0.36767793  0.40103335  0.16365354     0.09500
C93         C  0.33588016  0.44009503  0.22678742    -0.54000
C94         C  0.38363061  0.46093693  0.22032726     0.10100
H95         H  0.29840479  0.47627824  0.15135851     0.14600
H96         H  0.43687222  0.47571921  0.16877060     0.00300
H97         H  0.29271458  0.34300178  0.16913806     0.14900
H98         H  0.32193625  0.44044085  0.25737073     0.14700
C99         C  0.09332698  0.19419037  0.18987311     0.86500
C100        C  0.11801385  0.17628141  0.15983573    -0.53700
C101        C  0.09031553  0.12694273  0.14921950     0.09400
C102        C  0.03936030  0.10037239  0.17321147     0.20400
C103        C  0.04375429  0.18005253  0.17070177    -0.54500
C104        C  0.01230463  0.13101037  0.16393911     0.09500
C105        C  0.08409912  0.16168298  0.22692061    -0.54000
C106        C  0.05655466  0.11347310  0.21979744     0.10100
H107        H  0.15557244  0.19949163  0.15154552     0.14600
H108        H  0.01642979  0.06027105  0.16670781     0.00300
H109        H  0.03166129  0.20709692  0.16979442     0.14900
H110        H  0.09937399  0.17604723  0.25768127     0.14700
C111        C  0.08195017  0.40675267  0.18914623     0.86500
C112        C  0.04010719  0.38329148  0.15739665    -0.53700
C113        C  0.01894499  0.41179569  0.14777172     0.09400
C114        C  0.04302469  0.46200397  0.17394829     0.20400
C115        C  0.11774667  0.45755417  0.17252263    -0.54500
C116        C  0.10044517  0.48929625  0.16619963     0.09500
C117        C  0.05779902  0.41438082  0.22597190    -0.54000
C118        C  0.03745613  0.44225505  0.21952050     0.10100
H119        H  0.02511797  0.34539787  0.14825005     0.14600
H120        H  0.02620492  0.48539320  0.16842931     0.00300
H121        H  0.15656794  0.46967020  0.17180490     0.14900
H122        H  0.05582075  0.39762819  0.25606836     0.14700
O123        O  0.16176386  0.27247037  0.20915747    -0.85300
O124        O  0.24612778  0.35470059  0.23106297    -0.82400
C125        C  0.25328063  0.39043740  0.20749480     0.98100
O126        O  0.22576846  0.40901649  0.20929482    -0.82400
O127        O  0.14358605  0.41125035  0.23254395    -0.85100
C128        C  0.10886620  0.38330887  0.20767583     1.02600
O129        O  0.09110770  0.33727955  0.20841904    -0.77800
O130        O  0.08849023  0.25210593  0.23151471    -0.78000
C131        C  0.11624628  0.24452209  0.20799163     1.02600
O132        O  0.13981399  0.25157428  0.29714988    -0.85300
O133        O  0.21660765  0.33254509  0.31896853    -0.82400
C134        C  0.24156072  0.37775410  0.32503124     0.98100
O135        O  0.24805802  0.40709180  0.29578784    -0.82400
O136        O  0.16773641  0.40254063  0.32070570    -0.85000
C137        C  0.12283645  0.38121060  0.32705021     1.02600
O138        O  0.09380563  0.36057100  0.29650295    -0.77900
O139        O  0.09649662  0.28333977  0.31861114    -0.78000
C140        C  0.11626694  0.25821870  0.32566603     1.02600
Cr141      Cr  0.18984160  0.30519799  0.26334670     1.93700
Cr142      Cr  0.19379307  0.40396793  0.26387295     1.93200
Cr143      Cr  0.09605948  0.30959303  0.26288834     1.39100
O144        O  0.15992253  0.33954042  0.26103119    -1.23100
N145        N  0.43039969  0.11296418  0.13137127    -0.03500
C146        C  0.45737166  0.11511973  0.16631966    -0.00900
C147        C  0.94620667  0.14030251  0.19635309    -0.23800
C148        C  0.42772137  0.16635598  0.17527786    -0.24000
C149        C  0.42430928  0.15374913  0.13349581    -0.01000
H150        H  0.96380730  0.15153336  0.22684025     0.12800
H151        H  0.92909837  0.19936311  0.18748352     0.12800
N152        N  0.38766075  0.06605884  0.12202268    -0.03500
C153        C  0.39385791  0.02555622  0.11953677    -0.00900
C154        C  0.38968295  0.51237378  0.07788284    -0.23800
C155        C  0.37037189  0.03774800  0.05719602    -0.24000
C156        C  0.35991316  0.06305792  0.08751226    -0.01000
H157        H  0.38812069  0.47923153  0.06582577     0.12800
H158        H  0.35182431  0.52590052  0.02711277     0.12800
C159        C  0.41470692  0.36147966  0.52156518     0.86500
C160        C  0.44842459  0.34698067  0.49933225    -0.53700
C161        C  0.43001932  0.29729488  0.49261788     0.09400
C162        C  0.37456511  0.26712763  0.50576778     0.20400
C163        C  0.36836098  0.34190301  0.49437749    -0.54500
C164        C  0.34704645  0.29240064  0.48409886     0.09500
C165        C  0.39715475  0.32968340  0.55941489    -0.54000
C166        C  0.37652592  0.28160620  0.55262667     0.10100
H167        H  0.48716116  0.37356768  0.49689523     0.14600
H168        H  0.35718061  0.22682584  0.49981778     0.00300
H169        H  0.35271687  0.36461132  0.48632356     0.14900
H170        H  0.39975254  0.34423645  0.59072261     0.14700
C171        C  0.42281024  0.08267232  0.52319460     0.86500
C172        C  0.37647960  0.04756121  0.49947584    -0.53700
C173        C  0.34432453  0.06406911  0.49182507     0.09400
C174        C  0.36754604  0.12005550  0.50465933     0.20400
C175        C  0.44895300  0.12793507  0.49552900    -0.54500
C176        C  0.42007185  0.14784422  0.48386874     0.09500
C177        C  0.40811431  0.10124382  0.56027034    -0.54000
C178        C  0.37936623  0.11985835  0.55215061     0.10100
H179        H  0.36598941  0.00882400  0.49687883     0.14600
H180        H  0.34390144  0.13609896  0.49715365     0.00300
H181        H  0.48639626  0.14253911  0.48623461     0.14900
H182        H  0.42024426  0.10033343  0.59203072     0.14700
C183        C  0.12855973  0.07902833  0.52502906     0.86500
C184        C  0.14450620  0.12775487  0.50454708    -0.53700
C185        C  0.19362772  0.15541854  0.49699095     0.09400
C186        C  0.22114259  0.12551563  0.50894623     0.20400
C187        C  0.14230640  0.05081752  0.49479878    -0.54500
C188        C  0.19224691  0.07111288  0.48865875     0.09500
C189        C  0.16178484  0.08968022  0.56270672    -0.54000
C190        C  0.20916097  0.11461827  0.55534534     0.10100
H191        H  0.11961726  0.14230058  0.50254114     0.14600
H192        H  0.26093554  0.14590271  0.50255137     0.00300
H193        H  0.11619419  0.01207971  0.49022552     0.14900
H194        H  0.14888657  0.07833518  0.59412661     0.14700
O195        O  0.47735307  0.42103681  0.56386593    -0.85300
O196        O  0.05297035  0.00991023  0.54365581    -0.82400
C197        C  0.07987660  0.05599167  0.54406312     0.98100
O198        O  0.07393780  0.08239414  0.57086877    -0.82400
O199        O  0.49054087  0.07584914  0.54696532    -0.85100
C200        C  0.44511615  0.05581964  0.54280471     1.02600
O201        O  0.41638388  0.01906171  0.56502418    -0.77800
O202        O  0.42135103  0.43847180  0.54249117    -0.78000
C203        C  0.44113685  0.41222121  0.54022759     1.02600
O204        O  0.49979100  0.45019386  0.65237263    -0.85300
O205        O  0.07678639  0.03024816  0.63293378    -0.82400
C206        C  0.06838943  0.05061006  0.66338987     0.98100
O207        O  0.04102465  0.06827071  0.65811346    -0.82400
O208        O  0.46347015  0.07010013  0.63359080    -0.85000
C209        C  0.44202127  0.03905774  0.66187560     1.02600
O210        O  0.42236995  0.99436138  0.65344969    -0.77900
O211        O  0.42417902  0.41733216  0.63125171    -0.78000
C212        C  0.45536574  0.42635111  0.66017019     1.02600
Cr213      Cr  0.02451745  0.47892937  0.59743911     1.93700
Cr214      Cr  0.01594552  0.07053477  0.60180657     1.93200
Cr215      Cr  0.42440138  0.46970784  0.59738149     1.39100
O216        O  0.48805926  0.00626330  0.59711830    -1.23100
N217        N  0.21528782  0.00642021  0.46039058    -0.03500
C218        C  0.20998245  0.03303627  0.49310320    -0.00900
C219        C  0.18587720  0.99921839  0.52481817    -0.23800
C220        C  0.15818777  0.45491758  0.50480400    -0.24000
C221        C  0.17254704  0.46169398  0.46369678    -0.01000
H222        H  0.17469407  0.00760213  0.55409370     0.12800
H223        H  0.12331810  0.42721747  0.51634937     0.12800
N224        N  0.26039016  0.00351892  0.46013192    -0.03500
C225        C  0.25591708  0.45661776  0.45957167    -0.00900
C226        C  0.25894407  0.44381617  0.50042112    -0.23800
C227        C  0.27991588  0.98692492  0.52315101    -0.24000
C228        C  0.29076220  0.02453339  0.49451766    -0.01000
H229        H  0.25992036  0.41111482  0.51014829     0.12800
H230        H  0.29884898  0.99127909  0.55272587     0.12800
N231        N  0.48374083  0.22668093  0.45045732    -0.03500
C232        C  0.00695232  0.22103643  0.41659176    -0.00900
C233        C  0.46994149  0.19211145  0.38781097    -0.23800
C234        C  0.42655017  0.16913915  0.40934111    -0.24000
C235        C  0.43719782  0.18671771  0.44995592    -0.01000
H236        H  0.97531451  0.17751276  0.35890408     0.12800
H237        H  0.39473423  0.13500514  0.39927020     0.12800
N238        N  0.48943363  0.27453052  0.45861657    -0.03500
C239        C  0.46725480  0.27901375  0.49379389    -0.00900
C240        C  0.50418757  0.30126613  0.52391831    -0.23800
C241        C  0.04795165  0.32272215  0.50305691    -0.24000
C242        C  0.03689739  0.31255696  0.46110260    -0.01000
H243        H  0.49999872  0.31263660  0.55483902     0.12800
H244        H  0.08245423  0.34998331  0.51646654     0.12800
N245        N  0.26616685  0.27774589  0.45287544    -0.03500
C246        C  0.27158063  0.30561168  0.41822561    -0.00900
C247        C  0.29645848  0.29334844  0.38927417    -0.23800
C248        C  0.31870623  0.27165426  0.41125016    -0.24000
C249        C  0.30480138  0.26882535  0.45237796    -0.01000
H250        H  0.30979399  0.31158513  0.35963804     0.12800
H251        H  0.35096279  0.27118232  0.40071667     0.12800
N252        N  0.21815166  0.23699480  0.46125899    -0.03500
C253        C  0.17957300  0.24630270  0.46135714    -0.00900
C254        C  0.16885480  0.24820981  0.50277502    -0.23800
C255        C  0.19243535  0.22848027  0.52583622    -0.24000
C256        C  0.21410842  0.21166044  0.49734073    -0.01000
H257        H  0.13768204  0.25040746  0.51384048     0.12800
H258        H  0.18107004  0.21371459  0.55686232     0.12800
C259        C  0.05872855  0.42568393  0.39436366     0.86500
C260        C  0.03061049  0.37814430  0.41974954    -0.53700
C261        C  0.05739545  0.35596107  0.43092963     0.09400
C262        C  0.11096518  0.38458473  0.41317060     0.20400
C263        C  0.10601593  0.45966829  0.41898936    -0.54500
C264        C  0.13339415  0.43849057  0.43026064     0.09500
C265        C  0.07571563  0.41034189  0.35726069    -0.54000
C266        C  0.10342484  0.39020282  0.36516068     0.10100
H267        H  0.49245499  0.36305465  0.42715033     0.14600
H268        H  0.13352335  0.36729177  0.42049579     0.00300
H269        H  0.11723516  0.99767961  0.42554226     0.14900
H270        H  0.06786868  0.41681383  0.32561479     0.14700
C271        C  0.07114844  0.14873953  0.39401295     0.86500
C272        C  0.11697015  0.17104821  0.42155469    -0.53700
C273        C  0.13517164  0.22006800  0.43151771     0.09400
C274        C  0.10393663  0.24191043  0.40957863     0.20400
C275        C  0.03441250  0.15944027  0.41591249    -0.54500
C276        C  0.04833811  0.20828475  0.42144578     0.09500
C277        C  0.08665522  0.18065512  0.35607036    -0.54000
C278        C  0.10379754  0.22840039  0.36289459     0.10100
H279        H  0.13469939  0.15032090  0.43011790     0.14600
H280        H  0.11841413  0.28179339  0.41559390     0.00300
H281        H  0.49653473  0.13060221  0.41883672     0.14900
H282        H  0.08426146  0.16639299  0.32479224     0.14700
C283        C  0.35049654  0.44119958  0.39384461     0.86500
C284        C  0.32981822  0.46751384  0.41985635    -0.53700
C285        C  0.28081454  0.43889121  0.42879809     0.09400
C286        C  0.25737105  0.38517246  0.40831740     0.20400
C287        C  0.33757082  0.39308724  0.41635257    -0.54500
C288        C  0.28850506  0.36086046  0.42193189     0.09500
C289        C  0.31858581  0.42532909  0.35553658    -0.54000
C290        C  0.27106545  0.39654869  0.36204781     0.10100
H291        H  0.35157671  0.00604207  0.42803625     0.14600
H292        H  0.21757324  0.36136630  0.41369309     0.00300
H293        H  0.36443073  0.38111447  0.41882425     0.14900
H294        H  0.33265899  0.43524305  0.32436973     0.14700
O295        O  0.41155958  0.50448952  0.35298145    -0.85300
O296        O  0.00392282  0.07134782  0.37556230    -0.82400
C297        C  0.04974082  0.09770261  0.37675224     0.98100
O298        O  0.07544108  0.08815746  0.35247781    -0.82400
O299        O  0.05260882  0.49555910  0.37503705    -0.85100
C300        C  0.03142047  0.44916821  0.37649095     1.02600
O301        O  0.49507016  0.42306129  0.35250500    -0.77800
O302        O  0.42576000  0.44638832  0.37497754    -0.78000
C303        C  0.40121300  0.46826465  0.37671175     1.02600
O304        O  0.44140689  0.52273041  0.26485040    -0.85300
O305        O  0.02607880  0.09502013  0.28744675    -0.82400
C306        C  0.04426409  0.08366110  0.25743601     0.98100
O307        O  0.06071297  0.05518990  0.26401303    -0.82400
O308        O  0.04909144  0.47065706  0.28789525    -0.85000
C309        C  0.01955793  0.45288979  0.25745478     1.02600
O310        O  0.97486041  0.43546485  0.26379067    -0.77900
O311        O  0.40280438  0.44756192  0.28744103    -0.78000
C312        C  0.41336236  0.47780182  0.25797775     1.02600
Cr313      Cr  0.47180312  0.04626666  0.32078668     1.93700
Cr314      Cr  0.05623005  0.02642703  0.32038782     1.93200
Cr315      Cr  0.45190663  0.44120640  0.32024913     1.39100
O316        O  0.49322812  0.00453319  0.32123247    -1.23100
C317        C  0.40273867  0.31817122  0.72907955     0.86500
C318        C  0.44862424  0.33783748  0.75685748    -0.53700
C319        C  0.46984169  0.38754191  0.76656976     0.09400
C320        C  0.44166629  0.41233007  0.74457223     0.20400
C321        C  0.36863407  0.33217700  0.75089370    -0.54500
C322        C  0.38594203  0.38162073  0.75714397     0.09500
C323        C  0.42094107  0.34993815  0.69125671    -0.54000
C324        C  0.44017613  0.39778760  0.69789597     0.10100
H325        H  0.46389087  0.31506488  0.76601594     0.14600
H326        H  0.45850577  0.45260388  0.75034895     0.00300
H327        H  0.33002264  0.30501808  0.75300571     0.14900
H328        H  0.41939238  0.33553764  0.66006070     0.14700
C329        C  0.18129545  0.10733082  0.72898367     0.86500
C330        C  0.16299728  0.13368690  0.75762524    -0.53700
C331        C  0.11446490  0.10523878  0.76866493     0.09400
C332        C  0.08904351  0.05198677  0.74682332     0.20400
C333        C  0.16927973  0.05913299  0.75047014    -0.54500
C334        C  0.12078411  0.02684634  0.75762721     0.09500
C335        C  0.14727903  0.09334300  0.69193809    -0.54000
C336        C  0.10007097  0.06479104  0.69992290     0.10100
H337        H  0.18556686  0.17215406  0.76568733     0.14600
H338        H  0.04959460  0.02849696  0.75369140     0.00300
H339        H  0.19673026  0.04779132  0.75203501     0.14900
H340        H  0.15971027  0.10618979  0.66059435     0.14700
C341        C  0.39167986  0.09752362  0.72908165     0.86500
C342        C  0.36733228  0.05450988  0.75949766    -0.53700
C343        C  0.39527196  0.03284904  0.76946928     0.09400
C344        C  0.44598174  0.05806367  0.74548740     0.20400
C345        C  0.44177199  0.13344675  0.74789104    -0.54500
C346        C  0.47293221  0.11547221  0.75501478     0.09500
C347        C  0.40073706  0.07435744  0.69204307    -0.54000
C348        C  0.42888695  0.05476870  0.69923336     0.10100
H349        H  0.33016197  0.04036565  0.76893964     0.14600
H350        H  0.46911968  0.04105882  0.75134102     0.00300
H351        H  0.45422766  0.17272211  0.74860632     0.14900
H352        H  0.38616279  0.07379817  0.66090539     0.14700
O353        O  0.25797926  0.17672932  0.70805818    -0.85300
O354        O  0.33964267  0.26074323  0.68627127    -0.82400
C355        C  0.37535611  0.26789930  0.71010390     0.98100
O356        O  0.39364508  0.24032818  0.70799548    -0.82400
O357        O  0.39583815  0.15856021  0.68505985    -0.85100
C358        C  0.36842197  0.12411519  0.70964328     1.02600
O359        O  0.32278637  0.10552880  0.70777937    -0.77800
O360        O  0.23788408  0.10219114  0.68601823    -0.78000
C361        C  0.23065286  0.13068969  0.70961769     1.02600
O362        O  0.23482668  0.15262684  0.62053107    -0.85300
O363        O  0.31516385  0.22892592  0.59755188    -0.82400
C364        C  0.35977073  0.25285752  0.59037472     0.98100
O365        O  0.38995556  0.26149644  0.61992154    -0.82400
O366        O  0.38601994  0.18115394  0.59713502    -0.85000
C367        C  0.36542015  0.13617921  0.58936519     1.02600
O368        O  0.34349134  0.10591553  0.61841699    -0.77900
O369        O  0.26612681  0.10904896  0.59803785    -0.78000
C370        C  0.24063151  0.12859164  0.59171090     1.02600
Cr371      Cr  0.28949310  0.20372995  0.65374239     1.93700
Cr372      Cr  0.38767772  0.20794724  0.65330511     1.93200
Cr373      Cr  0.29396256  0.10929138  0.65339578     1.39100
O374        O  0.32369983  0.17364001  0.65571031    -1.23100
N375        N  0.33020594  0.44991307  0.79889127    -0.03500
C376        C  0.37698148  0.99023181  0.80062472    -0.00900
C377        C  0.38746353  0.00431387  0.84210436    -0.23800
C378        C  0.34390395  0.97991840  0.86327259    -0.24000
C379        C  0.30706870  0.45354185  0.83359638    -0.01000
H380        H  0.41932703  0.03753130  0.85364146     0.12800
H381        H  0.33843150  0.99248227  0.89320361     0.12800
N382        N  0.32446975  0.40211703  0.78977190    -0.03500
C383        C  0.27727882  0.36239630  0.78818471    -0.00900
C384        C  0.26641592  0.34871070  0.74667139    -0.23800
C385        C  0.30988945  0.37273298  0.72526576    -0.24000
C386        C  0.34716800  0.39808176  0.75480518    -0.01000
H387        H  0.23413674  0.31593702  0.73509263     0.12800
H388        H  0.31477658  0.36017518  0.69511249     0.12800
N389        N  0.09973824  0.44339642  0.78929309    -0.03500
C390        C  0.13827552  0.43405116  0.78858840    -0.00900
C391        C  0.15154647  0.93656185  0.74737444    -0.23800
C392        C  0.12982908  0.95906819  0.72573370    -0.24000
C393        C  0.10494159  0.47145238  0.75463040    -0.01000
H394        H  0.18342061  0.93549674  0.73653046     0.12800
H395        H  0.14312709  0.97718677  0.69606604     0.12800
N396        N  0.05153477  0.40259164  0.79726117    -0.03500
C397        C  0.04623570  0.37532845  0.83242381    -0.00900
C398        C  0.52165519  0.38846872  0.86099093    -0.23800
C399        C  0.49989736  0.41046525  0.83872729    -0.24000
C400        C  0.01301018  0.41188270  0.79755726    -0.01000
H401        H  0.50846295  0.37102645  0.89091439     0.12800
H402        H  0.46815345  0.41193814  0.84930096     0.12800
N403        N  0.09780365  0.17207963  0.79745687    -0.03500
C404        C  0.12584138  0.19660984  0.83205143    -0.00900
C405        C  0.11509334  0.16057936  0.86215615    -0.23800
C406        C  0.09536848  0.11585283  0.84123285    -0.24000
C407        C  0.09130748  0.12499942  0.79954865    -0.01000
H408        H  0.13353880  0.16707970  0.89225874     0.12800
H409        H  0.09657856  0.08407766  0.85320648     0.12800
N410        N  0.05515725  0.17673637  0.78884931    -0.03500
C411        C  0.52824044  0.15330423  0.75347722    -0.00900
C412        C  0.54086449  0.19047400  0.72404253    -0.23800
C413        C  0.55982029  0.23457459  0.74592531    -0.24000
C414        C  0.06165677  0.22388065  0.78755410    -0.01000
H415        H  0.52391020  0.18514841  0.69337966     0.12800
H416        H  0.55938245  0.26687138  0.73423371     0.12800
C417        C  0.26129782  0.25378192  0.85723132     0.86500
C418        C  0.21279441  0.21846122  0.83535332    -0.53700
C419        C  0.18062622  0.23540035  0.82893462     0.09400
C420        C  0.20559691  0.29165052  0.84134427     0.20400
C421        C  0.28671272  0.29900906  0.82962847    -0.54500
C422        C  0.25822433  0.31983373  0.81949104     0.09500
C423        C  0.24886840  0.27347297  0.89488066    -0.54000
C424        C  0.21895643  0.29124565  0.88833733     0.10100
H425        H  0.20120219  0.17943940  0.83363294     0.14600
H426        H  0.18198008  0.30803567  0.83518768     0.00300
H427        H  0.32442018  0.31435205  0.82101031     0.14900
H428        H  0.26083403  0.27064761  0.92617959     0.14700
C429        C  0.24611037  0.02843650  0.85769482     0.86500
C430        C  0.28195399  0.01639885  0.83659663    -0.53700
C431        C  0.26673444  0.46758346  0.83032366     0.09400
C432        C  0.21100904  0.43496992  0.84180378     0.20400
C433        C  0.20100684  0.00790160  0.82945155    -0.54500
C434        C  0.18150458  0.45855013  0.81948985     0.09500
C435        C  0.22778811  0.49608796  0.89527895    -0.54000
C436        C  0.21078952  0.44838451  0.88855085     0.10100
H437        H  0.32033334  0.04456355  0.83542813     0.14600
H438        H  0.19579220  0.39498891  0.83560170     0.00300
H439        H  0.18461289  0.02968482  0.82053654     0.14900
H440        H  0.23009121  0.51050830  0.92647699     0.14700
C441        C  0.46856766  0.23821584  0.85679761     0.86500
C442        C  0.48115266  0.28750028  0.83668751    -0.53700
C443        C  0.02975134  0.31992707  0.83023375     0.09400
C444        C  0.06134843  0.29507012  0.84110417     0.20400
C445        C  0.48795239  0.21331351  0.82767853    -0.54500
C446        C  0.03693405  0.24249407  0.81793620     0.09500
C447        C  0.00168909  0.25057843  0.89424326    -0.54000
C448        C  0.04897086  0.28062942  0.88759694     0.10100
H449        H  0.45383604  0.29901453  0.83510451     0.14600
H450        H  0.10099036  0.31922285  0.83532555     0.00300
H451        H  0.46581809  0.17516073  0.81857361     0.14900
H452        H  0.98812980  0.23811464  0.92533743     0.14700
O453        O  0.30800036  0.08576847  0.90024027    -0.85300
O454        O  0.39121308  0.16863433  0.87789937    -0.82400
C455        C  0.41896462  0.21472828  0.87607513     0.98100
O456        O  0.41253227  0.24350936  0.89998689    -0.82400
O457        O  0.32967928  0.24396170  0.87795424    -0.85100
C458        C  0.28413002  0.22638097  0.87602377     1.02600
O459        O  0.25580819  0.19098156  0.89944397    -0.77800
O460        O  0.25500139  0.10701814  0.87722519    -0.78000
C461        C  0.27255600  0.07870291  0.87629887     1.02600
O462        O  0.33112829  0.11631059  0.98860983    -0.85300
O463        O  0.41304858  0.19187190  0.96497984    -0.82400
C464        C  0.40680446  0.21422028  0.99484397     0.98100
O465        O  0.38357719  0.23626398  0.98853890    -0.82400
O466        O  0.30810900  0.24262743  0.96573082    -0.85000
C467        C  0.28572302  0.21304852  0.99489671     1.02600
O468        O  0.26382034  0.16792188  0.98763328    -0.77900
O469        O  0.25720525  0.08594379  0.96458566    -0.78000
C470        C  0.28613095  0.09290829  0.99474164     1.02600
Cr471      Cr  0.35841238  0.14179451  0.93226117     1.93700
Cr472      Cr  0.35719580  0.23793306  0.93233083     1.93200
Cr473      Cr  0.26168584  0.14049857  0.93148846     1.39100
O474        O  0.32574815  0.17342092  0.92948939    -1.23100
C475        C  0.24017584  0.77569814  0.06393627     0.86500
C476        C  0.20555606  0.72772970  0.08578715    -0.53700
C477        C  0.22174717  0.69482740  0.09194977     0.09400
C478        C  0.27730246  0.71917527  0.07965966     0.20400
C479        C  0.28598027  0.80173437  0.09137756    -0.54500
C480        C  0.30636351  0.77274954  0.10138744     0.09500
C481        C  0.25818421  0.76163106  0.02623952    -0.54000
C482        C  0.27618046  0.73186335  0.03286189     0.10100
H483        H  0.16698768  0.71648096  0.08660128     0.14600
H484        H  0.29346055  0.69528905  0.08578091     0.00300
H485        H  0.30225147  0.84027327  0.09950183     0.14900
H486        H  0.25478648  0.77286459  0.99494503     0.14700
C487        C  0.01596930  0.76005658  0.06304987     0.86500
C488        C  0.00383954  0.79718444  0.08263957    -0.53700
C489        C  0.45541359  0.78145477  0.08957740     0.09400
C490        C  0.42354759  0.72479032  0.07938118     0.20400
C491        C  0.99677030  0.71623664  0.09246792    -0.54500
C492        C  0.44808478  0.69675799  0.10268730     0.09500
C493        C  0.48260665  0.73887777  0.02591123    -0.54000
C494        C  0.43546767  0.72251634  0.03275874     0.10100
H495        H  0.03118528  0.83612021  0.08227307     0.14600
H496        H  0.38402120  0.70940892  0.08549525     0.00300
H497        H  0.01873339  0.70008447  0.10129522     0.14900
H498        H  0.49614103  0.73987844  0.99479399     0.14700
C499        C  0.22380956  0.98474735  0.06374776     0.86500
C500        C  0.27286730  0.99786318  0.08419238    -0.53700
C501        C  0.30526803  0.54694046  0.09097439     0.09400
C502        C  0.28043734  0.57848076  0.07993313     0.20400
C503        C  0.19950113  0.00440173  0.09268993    -0.54500
C504        C  0.22836867  0.55384579  0.10278755     0.09500
C505        C  0.23535412  0.51728117  0.02637690    -0.49800
C506        C  0.26612440  0.56509420  0.03300998     0.10100
H507        H  0.28444858  0.97042865  0.08457373     0.14600
H508        H  0.30441162  0.61852904  0.08621718     0.00300
H509        H  0.16216219  0.98182006  0.10231226     0.14900
H510        H  0.22245616  0.50261373  0.99523657     0.14700
O511        O  0.07230444  0.82159111  0.02011973    -0.85300
O512        O  0.15502996  0.90596924  0.04304233    -0.82400
C513        C  0.20059532  0.93430432  0.04490932     0.98100
O514        O  0.22886390  0.92728576  0.02151390    -0.82400
O515        O  0.22951333  0.84423090  0.04442045    -0.85100
C516        C  0.21260073  0.79838935  0.04534291     1.02600
O517        O  0.17715177  0.76947468  0.02140106    -0.77800
O518        O  0.09320521  0.76791257  0.04240993    -0.78000
C519        C  0.06550728  0.78613357  0.04388564     1.02600
O520        O  0.10226139  0.84440086  0.93231908    -0.85300
O521        O  0.17740722  0.92639317  0.95528327    -0.82400
C522        C  0.20040055  0.91962534  0.92640184     0.98100
O523        O  0.22186299  0.89613097  0.93378991    -0.82400
O524        O  0.22793480  0.82070721  0.95696204    -0.85000
C525        C  0.19916075  0.79895978  0.92658800     1.02600
O526        O  0.15423570  0.77691672  0.93254421    -0.77900
O527        O  0.07215619  0.76962095  0.95460527    -0.78000
C528        C  0.07834190  0.79920795  0.92542883     1.02600
Cr529      Cr  0.12798519  0.87215744  0.98849582     1.93700
Cr530      Cr  0.22331647  0.87077919  0.98992603     1.93200
Cr531      Cr  0.12665790  0.77462254  0.98850283     1.39100
O532        O  0.15926706  0.83917826  0.99152097    -1.23100
N533        N  0.15716365  0.61213448  0.12148665    -0.03500
C534        C  0.18214233  0.63988878  0.08759662    -0.00900
C535        C  0.14675104  0.62972915  0.05666530    -0.23800
C536        C  0.10214252  0.60987004  0.07628143    -0.24000
C537        C  0.11031230  0.60467816  0.11801741    -0.01000
H538        H  0.15369048  0.64852704  0.02698636     0.12800
H539        H  0.07083908  0.61131833  0.06363934     0.12800
N540        N  0.16254920  0.57033524  0.13204134    -0.03500
C541        C  0.13941947  0.54485813  0.16747068    -0.00900
C542        C  0.17681668  0.05750199  0.19702896    -0.23800
C543        C  0.22025089  0.07567855  0.17561021    -0.24000
C544        C  0.20952775  0.57761345  0.13397157    -0.01000
H545        H  0.17180879  0.04111346  0.22767833     0.12800
H546        H  0.25231854  0.07525486  0.18761204     0.12800
N547        N  0.43639615  0.84577803  0.11949692    -0.03500
C548        C  0.47590732  0.89282972  0.11693908    -0.00900
C549        C  0.98849610  0.90118093  0.07533123    -0.23800
C550        C  0.96392009  0.85609098  0.05499099    -0.24000
C551        C  0.43938610  0.82062215  0.08540046    -0.01000
H552        H  0.02101336  0.93271844  0.06334529     0.12800
H553        H  0.97557183  0.84905463  0.02534394     0.12800
N554        N  0.38936007  0.84029378  0.12918124    -0.03500
C555        C  0.35051140  0.79268796  0.13130664    -0.00900
C556        C  0.33997021  0.78260499  0.17307799    -0.23800
C557        C  0.36443088  0.82713860  0.19439464    -0.24000
C558        C  0.38666194  0.86394055  0.16459424    -0.01000
H559        H  0.30866001  0.75004123  0.18522521     0.12800
H560        H  0.35368095  0.83257870  0.22505766     0.12800
C561        C  0.30346904  0.91761174  0.18930035     0.86500
C562        C  0.32140562  0.96138301  0.15981020    -0.53700
C563        C  0.37053534  0.98302105  0.15020368     0.09400
C564        C  0.39696873  0.95816405  0.17420074     0.20400
C565        C  0.31859676  0.88238777  0.17031883    -0.54500
C566        C  0.36763764  0.90104212  0.16364870     0.09500
C567        C  0.33588452  0.94013194  0.22678701    -0.54000
C568        C  0.38363072  0.96095152  0.22032517     0.10100
H569        H  0.29844029  0.97637963  0.15138776     0.14600
H570        H  0.43685785  0.97570552  0.16876213     0.00300
H571        H  0.29265848  0.84304852  0.16912103     0.14900
H572        H  0.32193874  0.94048948  0.25738335     0.14700
C573        C  0.09332066  0.69419309  0.18985888     0.86500
C574        C  0.11801770  0.67627626  0.15984162    -0.53700
C575        C  0.09031736  0.62693696  0.14922759     0.09400
C576        C  0.03935351  0.60037343  0.17320540     0.20400
C577        C  0.04375265  0.68005425  0.17067208    -0.54500
C578        C  0.01230187  0.63100777  0.16391083     0.09500
C579        C  0.08407073  0.66169208  0.22691914    -0.54000
C580        C  0.05652104  0.61347868  0.21979385     0.10100
H581        H  0.15557900  0.69948172  0.15155830     0.14600
H582        H  0.01642497  0.56027115  0.16670248     0.00300
H583        H  0.03165595  0.70709484  0.16976988     0.14900
H584        H  0.09931647  0.67605102  0.25766666     0.14700
C585        C  0.08191467  0.90673331  0.18911439     0.86500
C586        C  0.04002858  0.88324706  0.15740690    -0.53700
C587        C  0.01887459  0.91175974  0.14778464     0.09400
C588        C  0.04299486  0.96199121  0.17392916     0.20400
C589        C  0.11769999  0.95751267  0.17244228    -0.54500
C590        C  0.10040635  0.98926515  0.16612863     0.09500
C591        C  0.05781647  0.91440867  0.22595438    -0.54000
C592        C  0.03747365  0.94228168  0.21951130     0.10100
H593        H  0.02501351  0.84534402  0.14828653     0.14600
H594        H  0.02617560  0.98538145  0.16841224     0.00300
H595        H  0.15651751  0.96961750  0.17170755     0.14900
H596        H  0.05585260  0.89766715  0.25605208     0.14700
O597        O  0.16176262  0.77248721  0.20913627    -0.85300
O598        O  0.24611597  0.85475146  0.23104579    -0.82400
C599        C  0.25327705  0.89050272  0.20749387     0.98100
O600        O  0.22576515  0.90908111  0.20929637    -0.82400
O601        O  0.14354937  0.91124695  0.23251958    -0.85100
C602        C  0.10883545  0.88329747  0.20764877     1.02600
O603        O  0.09108731  0.83726977  0.20839210    -0.77800
O604        O  0.08848763  0.75211111  0.23149514    -0.78000
C605        C  0.11624479  0.74452966  0.20797455     1.02600
O606        O  0.13983154  0.75160118  0.29713492    -0.85300
O607        O  0.21661015  0.83258414  0.31894036    -0.82400
C608        C  0.24156056  0.87778998  0.32501293     0.98100
O609        O  0.24803688  0.90714376  0.29578756    -0.82400
O610        O  0.16768402  0.90252944  0.32069376    -0.85000
C611        C  0.12278282  0.88118611  0.32702976     1.02600
O612        O  0.09376377  0.86055439  0.29647456    -0.77900
O613        O  0.09648640  0.78333806  0.31858953    -0.78000
C614        C  0.11628255  0.75824042  0.32565174     1.02600
Cr615      Cr  0.18984224  0.80523157  0.26332431     1.93700
Cr616      Cr  0.19376140  0.90398982  0.26386445     1.93200
Cr617      Cr  0.09604260  0.80958994  0.26286447     1.39100
O618        O  0.15990849  0.83955858  0.26101070    -1.23100
N619        N  0.43037873  0.61294430  0.13136759    -0.03500
C620        C  0.45736710  0.61510616  0.16630677    -0.00900
C621        C  0.94620693  0.64028063  0.19635035    -0.23800
C622        C  0.42770083  0.66632393  0.17528897    -0.24000
C623        C  0.42427968  0.65372373  0.13350422    -0.01000
H624        H  0.96382062  0.65151437  0.22683375     0.12800
H625        H  0.92907398  0.69932596  0.18750307     0.12800
N626        N  0.38764100  0.56603597  0.12202001    -0.03500
C627        C  0.39383527  0.52552995  0.11952879    -0.00900
C628        C  0.38971002  0.01239594  0.07789305    -0.23800
C629        C  0.37035291  0.53773554  0.05718936    -0.24000
C630        C  0.35989699  0.56304351  0.08750915    -0.01000
H631        H  0.38815124  0.97925272  0.06584071     0.12800
H632        H  0.35184197  0.02590561  0.02712130     0.12800
C633        C  0.41474639  0.86150198  0.52156974     0.86500
C634        C  0.44849269  0.84700235  0.49939112    -0.53700
C635        C  0.43009009  0.79731859  0.49267633     0.09400
C636        C  0.37462090  0.76715083  0.50577858     0.20400
C637        C  0.36843906  0.84193134  0.49433572    -0.54500
C638        C  0.34712727  0.79242674  0.48406569     0.09500
C639        C  0.39713804  0.82970514  0.55941630    -0.54000
C640        C  0.37652650  0.78162871  0.55263055     0.10100
H641        H  0.48722964  0.87358668  0.49697864     0.14600
H642        H  0.35724497  0.72684898  0.49983310     0.00300
H643        H  0.35280498  0.86464446  0.48625596     0.14900
H644        H  0.39969681  0.84425424  0.59071657     0.14700
C645        C  0.42282364  0.58267458  0.52321027     0.86500
C646        C  0.37650402  0.54758588  0.49946913    -0.53700
C647        C  0.34435753  0.56410694  0.49182032     0.09400
C648        C  0.36759557  0.62009369  0.50466576     0.20400
C649        C  0.44899554  0.62794860  0.49556254    -0.54500
C650        C  0.42013443  0.64787595  0.48389424     0.09500
C651        C  0.40811644  0.60123711  0.56028491    -0.54000
C652        C  0.37938919  0.61987392  0.55215935     0.10100
H653        H  0.36600548  0.50884727  0.49687082     0.14600
H654        H  0.34396770  0.63615439  0.49715465     0.00300
H655        H  0.48644596  0.64254667  0.48628267     0.14900
H656        H  0.42022662  0.60030803  0.59204790     0.14700
C657        C  0.12857832  0.57904691  0.52502467     0.86500
C658        C  0.14454488  0.62777425  0.50452789    -0.53700
C659        C  0.19367105  0.65541950  0.49696966     0.09400
C660        C  0.22116444  0.62550408  0.50894507     0.20400
C661        C  0.14231769  0.55081473  0.49481449    -0.54500
C662        C  0.19225476  0.57109816  0.48867410     0.09500
C663        C  0.16179966  0.58970647  0.56270592    -0.54000
C664        C  0.20917764  0.61462696  0.55534488     0.10100
H665        H  0.11967054  0.64233671  0.50251591     0.14600
H666        H  0.26095803  0.64587462  0.50255141     0.00300
H667        H  0.11620471  0.51207225  0.49026762     0.14900
H668        H  0.14889762  0.57837588  0.59412542     0.14700
O669        O  0.47735785  0.92104085  0.56389777    -0.85300
O670        O  0.05297421  0.50992426  0.54363610    -0.82400
C671        C  0.07988803  0.55600642  0.54405351     0.98100
O672        O  0.07394518  0.58240073  0.57086261    -0.82400
O673        O  0.49053505  0.57581787  0.54696096    -0.85100
C674        C  0.44511103  0.55580600  0.54281891     1.02600
O675        O  0.41637779  0.51905641  0.56504754    -0.77800
O676        O  0.42139125  0.93849934  0.54247194    -0.78000
C677        C  0.44116828  0.91223966  0.54023212     1.02600
O678        O  0.49977831  0.95021804  0.65239466    -0.85300
O679        O  0.07678778  0.53023510  0.63292058    -0.82400
C680        C  0.06839612  0.55060500  0.66337512     0.98100
O681        O  0.04103447  0.56826926  0.65810007    -0.82400
O682        O  0.46347349  0.57009139  0.63358566    -0.85000
C683        C  0.44204374  0.53906424  0.66188446     1.02600
O684        O  0.42240424  0.49436485  0.65347590    -0.77900
O685        O  0.42417530  0.91734380  0.63124396    -0.78000
C686        C  0.45534981  0.92636566  0.66017540     1.02600
Cr687      Cr  0.02451501  0.97893792  0.59746124     1.93700
Cr688      Cr  0.01594708  0.57052401  0.60179871     1.93200
Cr689      Cr  0.42440260  0.96971685  0.59736229     1.39100
O690        O  0.48805986  0.50625140  0.59711492    -1.23100
N691        N  0.21528435  0.50640185  0.46042768    -0.03500
C692        C  0.20997712  0.53301860  0.49313372    -0.00900
C693        C  0.18588063  0.49920946  0.52485716    -0.23800
C694        C  0.15816094  0.95493438  0.50475067    -0.24000
C695        C  0.17254383  0.96172444  0.46364797    -0.01000
H696        H  0.17469846  0.50760160  0.55413116     0.12800
H697        H  0.12329952  0.92726532  0.51627209     0.12800
N698        N  0.26040178  0.50353103  0.46016526    -0.03500
C699        C  0.25588452  0.95659389  0.45952452    -0.00900
C700        C  0.25887071  0.94376174  0.50037137    -0.23800
C701        C  0.27996656  0.48698902  0.52318867    -0.24000
C702        C  0.29079055  0.52457806  0.49453921    -0.01000
H703        H  0.25981593  0.91104094  0.51009141     0.12800
H704        H  0.29891392  0.49136822  0.55275977     0.12800
N705        N  0.48382738  0.72672347  0.45050695    -0.03500
C706        C  0.00705293  0.72110686  0.41663733    -0.00900
C707        C  0.47005256  0.69220112  0.38784257    -0.23800
C708        C  0.42665748  0.66920046  0.40936559    -0.24000
C709        C  0.43728712  0.68675729  0.44998672    -0.01000
H710        H  0.97544097  0.67762889  0.35892654     0.12800
H711        H  0.39484889  0.63506707  0.39927966     0.12800
N712        N  0.48950200  0.77456315  0.45867455    -0.03500
C713        C  0.46732137  0.77903376  0.49385558    -0.00900
C714        C  0.50425694  0.80129221  0.52397531    -0.23800
C715        C  0.04802378  0.82277467  0.50310902    -0.24000
C716        C  0.03695402  0.81260114  0.46115228    -0.01000
H717        H  0.50007109  0.81265727  0.55490115     0.12800
H718        H  0.08250000  0.85002261  0.51650780     0.12800
N719        N  0.26624508  0.77775107  0.45283047    -0.03500
C720        C  0.27165110  0.80561384  0.41817932    -0.00900
C721        C  0.29654877  0.79336698  0.38923318    -0.23800
C722        C  0.31880387  0.77168224  0.41121308    -0.24000
C723        C  0.30488861  0.76884267  0.45233857    -0.01000
H724        H  0.30988417  0.81160515  0.35959860     0.12800
H725        H  0.35106861  0.77122158  0.40068388     0.12800
N726        N  0.21823172  0.73699916  0.46122002    -0.03500
C727        C  0.17966218  0.74631884  0.46132500    -0.00900
C728        C  0.16896251  0.74824471  0.50274499    -0.23800
C729        C  0.19254197  0.72851287  0.52580402    -0.24000
C730        C  0.21418790  0.71166810  0.49730544    -0.01000
H731        H  0.13780094  0.75045904  0.51381696     0.12800
H732        H  0.18118638  0.71375969  0.55683589     0.12800
C733        C  0.05870228  0.92566641  0.39436086     0.86500
C734        C  0.03062043  0.87816415  0.41979808    -0.53700
C735        C  0.05742342  0.85599524  0.43097006     0.09400
C736        C  0.11096532  0.88459409  0.41315399     0.20400
C737        C  0.10602411  0.95968253  0.41893325    -0.54500
C738        C  0.13341390  0.93851824  0.43019835     0.09500
C739        C  0.07562479  0.91026132  0.35725506    -0.54000
C740        C  0.10335623  0.89014708  0.36514552     0.10100
H741        H  0.49247593  0.86308133  0.42722350     0.14600
H742        H  0.13353691  0.86731373  0.42047131     0.00300
H743        H  0.11722952  0.49766410  0.42559929     0.14900
H744        H  0.06772480  0.91668409  0.32560817     0.14700
C745        C  0.07118408  0.64877328  0.39401640     0.86500
C746        C  0.11703332  0.67107373  0.42152629    -0.53700
C747        C  0.13525602  0.72009806  0.43149041     0.09400
C748        C  0.10401917  0.74195304  0.40957743     0.20400
C749        C  0.03448464  0.65949409  0.41595259    -0.54500
C750        C  0.04843080  0.70834527  0.42148345     0.09500
C751        C  0.08666161  0.68067943  0.35606292    -0.54000
C752        C  0.10383159  0.72843305  0.36288972     0.10100
H753        H  0.13475324  0.65033671  0.43007997     0.14600
H754        H  0.11851549  0.78183976  0.41559368     0.00300
H755        H  0.49660601  0.63066615  0.41889331     0.14900
H756        H  0.08422615  0.66641631  0.32479990     0.14700
C757        C  0.35051122  0.94121695  0.39381393     0.86500
C758        C  0.32982257  0.96751200  0.41984253    -0.53700
C759        C  0.28081635  0.93887531  0.42877505     0.09400
C760        C  0.25739119  0.88516094  0.40828698     0.20400
C761        C  0.33760199  0.89310050  0.41630582    -0.54500
C762        C  0.28854368  0.86085853  0.42188448     0.09500
C763        C  0.31859601  0.92535408  0.35551177    -0.54000
C764        C  0.27108124  0.89656391  0.36201928     0.10100
H765        H  0.35158333  0.50604888  0.42804302     0.14600
H766        H  0.21759505  0.86134165  0.41366058     0.00300
H767        H  0.36447222  0.88114033  0.41877031     0.14900
H768        H  0.33267299  0.93529740  0.32432847     0.14700
O769        O  0.41156999  0.00450431  0.35294761    -0.85300
O770        O  0.00392240  0.57138870  0.37557028    -0.82400
C771        C  0.04974468  0.59773093  0.37675172     0.98100
O772        O  0.07542978  0.58817411  0.35247054    -0.82400
O773        O  0.05257479  0.99553581  0.37504545    -0.85100
C774        C  0.03138937  0.94914577  0.37649334     1.02600
O775        O  0.49504500  0.92304261  0.35250133    -0.77800
O776        O  0.42577999  0.94641927  0.37496442    -0.78000
C777        C  0.40122640  0.96828820  0.37668703     1.02600
O778        O  0.44144168  0.02274432  0.26482796    -0.85300
O779        O  0.02603373  0.59502557  0.28744434    -0.82400
C780        C  0.04422286  0.58366913  0.25743482     0.98100
O781        O  0.06066883  0.55519515  0.26400969    -0.82400
O782        O  0.04908401  0.97063300  0.28790242    -0.85000
C783        C  0.01956084  0.95288938  0.25745165     1.02600
O784        O  0.97486021  0.93545785  0.26378129    -0.77900
O785        O  0.40281445  0.94757971  0.28743025    -0.78000
C786        C  0.41337685  0.97781709  0.25796457     1.02600
Cr787      Cr  0.47177950  0.54626555  0.32080406     1.93700
Cr788      Cr  0.05622159  0.52644430  0.32038275     1.93200
Cr789      Cr  0.45190546  0.94120764  0.32023817     1.39100
O790        O  0.49321751  0.50453837  0.32124858    -1.23100
C791        C  0.40273904  0.81817995  0.72908000     0.86500
C792        C  0.44863553  0.83785130  0.75684276    -0.53700
C793        C  0.46984369  0.88755250  0.76656090     0.09400
C794        C  0.44165816  0.91233604  0.74457664     0.20400
C795        C  0.36863908  0.83217601  0.75091568    -0.54500
C796        C  0.38594134  0.88162033  0.75716162     0.09500
C797        C  0.42091712  0.84994884  0.69125617    -0.54000
C798        C  0.44015010  0.89779670  0.69789746     0.10100
H799        H  0.46390531  0.81508247  0.76600003     0.14600
H800        H  0.45849509  0.95260882  0.75035782     0.00300
H801        H  0.33003116  0.80501125  0.75304016     0.14900
H802        H  0.41935812  0.83554933  0.66005465     0.14700
C803        C  0.18130156  0.60733784  0.72897032     0.86500
C804        C  0.16300123  0.63369294  0.75760979    -0.53700
C805        C  0.11446855  0.60524075  0.76864810     0.09400
C806        C  0.08905062  0.55198878  0.74680559     0.20400
C807        C  0.16928951  0.55914411  0.75045975    -0.54500
C808        C  0.12079391  0.52685206  0.75760846     0.09500
C809        C  0.14728709  0.59334917  0.69192303    -0.54000
C810        C  0.10007953  0.56479189  0.69990596     0.10100
H811        H  0.18556658  0.67215659  0.76567102     0.14600
H812        H  0.04960182  0.52849626  0.75367282     0.00300
H813        H  0.19674487  0.54780828  0.75203188     0.14900
H814        H  0.15971937  0.60620119  0.66058033     0.14700
C815        C  0.39169333  0.59753382  0.72908200     0.86500
C816        C  0.36733813  0.55450936  0.75948677    -0.53700
C817        C  0.39528015  0.53285309  0.76946395     0.09400
C818        C  0.44599637  0.55807560  0.74549413     0.20400
C819        C  0.44177600  0.63345337  0.74790793    -0.54500
C820        C  0.47293905  0.61548070  0.75502937     0.09500
C821        C  0.40077022  0.57438286  0.69204336    -0.54000
C822        C  0.42891711  0.55479112  0.69923757     0.10100
H823        H  0.33016204  0.54035604  0.76891937     0.14600
H824        H  0.46913458  0.54107191  0.75135288     0.00300
H825        H  0.45422684  0.67272650  0.74863000     0.14900
H826        H  0.38620120  0.57382655  0.66090336     0.14700
O827        O  0.25798687  0.67673494  0.70805607    -0.85300
O828        O  0.33964297  0.76074819  0.68627845    -0.82400
C829        C  0.37536142  0.76790879  0.71010616     0.98100
O830        O  0.39365684  0.74034360  0.70799421    -0.82400
O831        O  0.39585277  0.65857492  0.68505940    -0.85100
C832        C  0.36843681  0.62412784  0.70964232     1.02600
O833        O  0.32280153  0.60554635  0.70778266    -0.77800
O834        O  0.23789445  0.60219955  0.68601166    -0.78000
C835        C  0.23065962  0.63069638  0.70961002     1.02600
O836        O  0.23484120  0.65263653  0.62052819    -0.85300
O837        O  0.31517145  0.72894519  0.59755709    -0.82400
C838        C  0.35977749  0.75287913  0.59037817     0.98100
O839        O  0.38996569  0.76151516  0.61992159    -0.82400
O840        O  0.38602815  0.68117218  0.59713292    -0.85000
C841        C  0.36543992  0.63619699  0.58937007     1.02600
O842        O  0.34351594  0.60593654  0.61842511    -0.77900
O843        O  0.26614521  0.60905990  0.59803753    -0.78000
C844        C  0.24064708  0.62859966  0.59171021     1.02600
Cr845      Cr  0.28950086  0.70373980  0.65374402     1.93700
Cr846      Cr  0.38768918  0.70796391  0.65330411     1.93200
Cr847      Cr  0.29397935  0.60930574  0.65339687     1.39100
O848        O  0.32371175  0.67365429  0.65571063    -1.23100
N849        N  0.33019799  0.94990412  0.79889954    -0.03500
C850        C  0.37699028  0.49023780  0.80061885    -0.00900
C851        C  0.38746866  0.50432411  0.84209781    -0.23800
C852        C  0.34390615  0.47993830  0.86326157    -0.24000
C853        C  0.30706251  0.95352398  0.83360954    -0.01000
H854        H  0.41933323  0.53754206  0.85363487     0.12800
H855        H  0.33843096  0.49250965  0.89318784     0.12800
N856        N  0.32446542  0.90211048  0.78977913    -0.03500
C857        C  0.27727772  0.86238599  0.78819590    -0.00900
C858        C  0.26641501  0.84868449  0.74668584    -0.23800
C859        C  0.30988561  0.87271032  0.72527746    -0.24000
C860        C  0.34716339  0.89807280  0.75481448    -0.01000
H861        H  0.23414026  0.81590109  0.73511347     0.12800
H862        H  0.31477544  0.86014646  0.69512824     0.12800
N863        N  0.09971847  0.94338743  0.78932566    -0.03500
C864        C  0.13824492  0.93402494  0.78861270    -0.00900
C865        C  0.15160161  0.43661125  0.74735541    -0.23800
C866        C  0.12986953  0.45909842  0.72570827    -0.24000
C867        C  0.10492363  0.97144282  0.75466116    -0.01000
H868        H  0.18349309  0.43557167  0.73652194     0.12800
H869        H  0.14317364  0.47722659  0.69604493     0.12800
N870        N  0.05151009  0.90258721  0.79728732    -0.03500
C871        C  0.04618771  0.87530267  0.83244092    -0.00900
C872        C  0.52157296  0.88841194  0.86099841    -0.23800
C873        C  0.49983359  0.91042441  0.83873242    -0.24000
C874        C  0.01298641  0.91187899  0.79757107    -0.01000
H875        H  0.50835252  0.87094292  0.89090800     0.12800
H876        H  0.46807580  0.91188216  0.84928992     0.12800
N877        N  0.09781312  0.67208234  0.79744491    -0.03500
C878        C  0.12585415  0.69660754  0.83203801    -0.00900
C879        C  0.11510728  0.66057728  0.86214168    -0.23800
C880        C  0.09537576  0.61585134  0.84121724    -0.24000
C881        C  0.09131253  0.62500038  0.79953376    -0.01000
H882        H  0.13355584  0.66707610  0.89224259     0.12800
H883        H  0.09658366  0.58407433  0.85318857     0.12800
N884        N  0.05516826  0.67674385  0.78884714    -0.03500
C885        C  0.52824391  0.65331440  0.75347928    -0.00900
C886        C  0.54085702  0.69048475  0.72404747    -0.23800
C887        C  0.55981567  0.73458337  0.74593358    -0.24000
C888        C  0.06166525  0.72388762  0.78756083    -0.01000
H889        H  0.52389215  0.68515909  0.69338889     0.12800
H890        H  0.55936846  0.76687803  0.73424837     0.12800
C891        C  0.26129402  0.75377766  0.85724177     0.86500
C892        C  0.21280655  0.71846251  0.83533941    -0.53700
C893        C  0.18063507  0.73539857  0.82891786     0.09400
C894        C  0.20559027  0.79163998  0.84134448     0.20400
C895        C  0.28672035  0.79901955  0.82965863    -0.54500
C896        C  0.25822907  0.81983776  0.81951264     0.09500
C897        C  0.24883280  0.77344070  0.89489371    -0.54000
C898        C  0.21891683  0.79121011  0.88834087     0.10100
H899        H  0.20121949  0.67944279  0.83361266     0.14600
H900        H  0.18197227  0.80802214  0.83517983     0.00300
H901        H  0.32443289  0.81436898  0.82104697     0.14900
H902        H  0.26077507  0.77059947  0.92618619     0.14700
C903        C  0.24611932  0.52845055  0.85769052     0.86500
C904        C  0.28196139  0.51642023  0.83657833    -0.53700
C905        C  0.26672498  0.96756245  0.83034468     0.09400
C906        C  0.21099544  0.93495158  0.84181815     0.20400
C907        C  0.20100942  0.50791667  0.82945381    -0.54500
C908        C  0.18149478  0.95853255  0.81949534     0.09500
C909        C  0.22776651  0.99607808  0.89528620    -0.54000
C910        C  0.21076718  0.94837074  0.88856195     0.10100
H911        H  0.32034082  0.54458867  0.83540759     0.14600
H912        H  0.19577725  0.89496933  0.83562140     0.00300
H913        H  0.18461699  0.52969895  0.82053948     0.14900
H914        H  0.23005690  0.01050158  0.92647355     0.14700
C915        C  0.46855612  0.73818999  0.85680147     0.86500
C916        C  0.48112527  0.78746276  0.83667371    -0.53700
C917        C  0.02972350  0.81990617  0.83022995     0.09400
C918        C  0.06133481  0.79506922  0.84111194     0.20400
C919        C  0.48795945  0.71329295  0.82769716    -0.54500
C920        C  0.03693743  0.74248728  0.81795109     0.09500
C921        C  0.00167573  0.75057535  0.89424951    -0.54000
C922        C  0.04895418  0.78063947  0.88760616     0.10100
H923        H  0.45379660  0.79895989  0.83507889     0.14600
H924        H  0.10097529  0.81923201  0.83533386     0.00300
H925        H  0.46583696  0.67513214  0.81859977     0.14900
H926        H  0.98811466  0.73811252  0.92534510     0.14700
O927        O  0.30799324  0.58576388  0.90025244    -0.85300
O928        O  0.39121356  0.66860557  0.87792462    -0.82400
C929        C  0.41895577  0.71469968  0.87608578     0.98100
O930        O  0.41252001  0.74348585  0.89998864    -0.82400
O931        O  0.32967323  0.74394752  0.87795770    -0.85100
C932        C  0.28412523  0.72637593  0.87603495     1.02600
O933        O  0.25580352  0.69097766  0.89945467    -0.77800
O934        O  0.25500125  0.60702172  0.87723179    -0.78000
C935        C  0.27255812  0.57870905  0.87630325     1.02600
O936        O  0.33109893  0.61629622  0.98863250    -0.85300
O937        O  0.41302710  0.69184765  0.96500367    -0.82400
C938        C  0.40677854  0.71420094  0.99486054     0.98100
O939        O  0.38356765  0.73625834  0.98854303    -0.82400
O940        O  0.30810647  0.74262392  0.96573688    -0.85000
C941        C  0.28571523  0.71304443  0.99490103     1.02600
O942        O  0.26381214  0.66791710  0.98763861    -0.77900
O943        O  0.25718540  0.58593220  0.96459185    -0.78000
C944        C  0.28610025  0.59289857  0.99475746     1.02600
Cr945      Cr  0.35839763  0.64177622  0.93228316     1.93700
Cr946      Cr  0.35718944  0.73792155  0.93233461     1.93200
Cr947      Cr  0.26167753  0.64049303  0.93149606     1.39100
O948        O  0.32573971  0.67340961  0.92950014    -1.23100
C949        C  0.74022671  0.27573745  0.06394032     0.86500
C950        C  0.70560072  0.22777442  0.08580019    -0.53700
C951        C  0.72177281  0.19485538  0.09195659     0.09400
C952        C  0.77732800  0.21919072  0.07965940     0.20400
C953        C  0.78604046  0.30176645  0.09137242    -0.54500
C954        C  0.80641438  0.27277326  0.10137988     0.09500
C955        C  0.75821871  0.26165341  0.02624452    -0.54000
C956        C  0.77619778  0.23187301  0.03285981     0.10100
H957        H  0.66703617  0.21653948  0.08661341     0.14600
H958        H  0.79347677  0.19529608  0.08577758     0.00300
H959        H  0.80232876  0.34031278  0.09948790     0.14900
H960        H  0.75482004  0.27289334  0.99493771     0.14700
C961        C  0.51600627  0.26005993  0.06302983     0.86500
C962        C  0.50389069  0.29719459  0.08262168    -0.53700
C963        C  0.95546825  0.28147805  0.08955630     0.09400
C964        C  0.92359020  0.22481403  0.07936374     0.20400
C965        C  0.49680566  0.21624431  0.09245356    -0.54500
C966        C  0.94811962  0.19677460  0.10267155     0.09500
C967        C  0.98263842  0.23888114  0.02589157    -0.54000
C968        C  0.93550138  0.22253278  0.03274042     0.10100
H969        H  0.53124382  0.33612754  0.08225335     0.14600
H970        H  0.88406584  0.20944217  0.08548163     0.00300
H971        H  0.51876838  0.20010000  0.10129754     0.14900
H972        H  0.99616840  0.23987459  0.99477557     0.14700
C973        C  0.72378240  0.48474697  0.06376499     0.86500
C974        C  0.77285205  0.49786134  0.08418437    -0.53700
C975        C  0.80528129  0.04694735  0.09097899     0.09400
C976        C  0.78045166  0.07848325  0.07991289     0.20400
C977        C  0.69949476  0.50439568  0.09273908    -0.54500
C978        C  0.72836716  0.05384935  0.10274110     0.09500
C979        C  0.73541646  0.01727420  0.02635063    -0.49800
C980        C  0.76617098  0.06509099  0.03298806     0.10100
H981        H  0.78443334  0.47042620  0.08455375     0.14600
H982        H  0.80442087  0.11853235  0.08619737     0.00300
H983        H  0.66216441  0.48181180  0.10238012     0.14900
H984        H  0.72255178  0.00260581  0.99521300     0.14700
O985        O  0.57232638  0.32158313  0.02008659    -0.85300
O986        O  0.65501884  0.40597529  0.04302252    -0.82400
C987        C  0.70058249  0.43431182  0.04491036     0.98100
O988        O  0.72886668  0.42731085  0.02151766    -0.82400
O989        O  0.72956298  0.34427415  0.04442210    -0.85100
C990        C  0.71265528  0.29843317  0.04534509     1.02600
O991        O  0.67720680  0.26951659  0.02140401    -0.77800
O992        O  0.59325551  0.26793709  0.04240691    -0.78000
C993        C  0.56554113  0.28613849  0.04386422     1.02600
O994        O  0.60230229  0.34439238  0.93229407    -0.85300
O995        O  0.67742459  0.42640365  0.95526785    -0.82400
C996        C  0.70042603  0.41964131  0.92639056     0.98100
O997        O  0.72190590  0.39616718  0.93378847    -0.82400
O998        O  0.72799176  0.32075765  0.95695715    -0.85000
C999        C  0.69921074  0.29899780  0.92658765     1.02600
O1000       O  0.65428763  0.27694187  0.93254988    -0.77900
O1001       O  0.57219292  0.26961692  0.95459470    -0.78000
C1002       C  0.57837025  0.29919790  0.92541449     1.02600
Cr1003     Cr  0.62800440  0.37215998  0.98847204     1.93700
Cr1004     Cr  0.72335472  0.37081813  0.98992634     1.93200
Cr1005     Cr  0.62670645  0.27464498  0.98850196     1.39100
O1006       O  0.65930383  0.33920048  0.99151347    -1.23100
N1007       N  0.65715836  0.11213955  0.12146358    -0.03500
C1008       C  0.68214633  0.13991932  0.08758509    -0.00900
C1009       C  0.64675910  0.12978794  0.05665551    -0.23800
C1010       C  0.60214695  0.10991328  0.07626714    -0.24000
C1011       C  0.61030825  0.10469129  0.11799832    -0.01000
H1012       H  0.65370369  0.14860695  0.02698772     0.12800
H1013       H  0.57084565  0.11137233  0.06363098     0.12800
N1014       N  0.66253546  0.07032743  0.13199394    -0.03500
C1015       C  0.63939526  0.04482578  0.16741393    -0.00900
C1016       C  0.67684904  0.55755761  0.19708345    -0.23800
C1017       C  0.72027702  0.57571549  0.17565663    -0.24000
C1018       C  0.70951474  0.07760470  0.13392671    -0.01000
H1019       H  0.67184957  0.54119255  0.22774148     0.12800
H1020       H  0.75234874  0.57530055  0.18766073     0.12800
N1021       N  0.93647136  0.34581730  0.11945995    -0.03500
C1022       C  0.97599121  0.39286673  0.11690782    -0.00900
C1023       C  0.48859966  0.40121278  0.07530283    -0.23800
C1024       C  0.46401400  0.35612465  0.05495969    -0.24000
C1025       C  0.93946073  0.32065798  0.08536712    -0.01000
H1026       H  0.52112734  0.43274238  0.06332269     0.12800
H1027       H  0.47566841  0.34908245  0.02531788     0.12800
N1028       N  0.88943379  0.34032984  0.12914638    -0.03500
C1029       C  0.85059123  0.29271886  0.13127463    -0.00900
C1030       C  0.84009165  0.28262487  0.17305116    -0.23800
C1031       C  0.86455499  0.32715785  0.19437053    -0.24000
C1032       C  0.88674323  0.36396526  0.16456992    -0.01000
H1033       H  0.80880334  0.25005260  0.18520904     0.12800
H1034       H  0.85382618  0.33258676  0.22504742     0.12800
C1035       C  0.80347409  0.41755359  0.18929715     0.86500
C1036       C  0.82138853  0.46131652  0.15979497    -0.53700
C1037       C  0.87052590  0.48298771  0.15019686     0.09400
C1038       C  0.89697992  0.45815794  0.17420376     0.20400
C1039       C  0.81863222  0.38234627  0.17033186    -0.54500
C1040       C  0.86767784  0.40103349  0.16365342     0.09500
C1041       C  0.83588012  0.44009527  0.22678736    -0.54000
C1042       C  0.88363061  0.46093709  0.22032716     0.10100
H1043       H  0.79840496  0.47627836  0.15135859     0.14600
H1044       H  0.93687213  0.47571926  0.16877048     0.00300
H1045       H  0.79271445  0.34300194  0.16913788     0.14900
H1046       H  0.82193634  0.44044122  0.25737045     0.14700
C1047       C  0.59332688  0.19419040  0.18987313     0.86500
C1048       C  0.61801394  0.17628142  0.15983602    -0.53700
C1049       C  0.59031559  0.12694272  0.14921978     0.09400
C1050       C  0.53936022  0.10037243  0.17321156     0.20400
C1051       C  0.54375433  0.18005266  0.17070152    -0.54500
C1052       C  0.51230462  0.13101041  0.16393894     0.09500
C1053       C  0.58409869  0.16168306  0.22692073    -0.54000
C1054       C  0.55655426  0.11347313  0.21979757     0.10100
H1055       H  0.65557240  0.19949153  0.15154587     0.14600
H1056       H  0.51642973  0.06027108  0.16670794     0.00300
H1057       H  0.53166139  0.20709697  0.16979413     0.14900
H1058       H  0.59937346  0.17604731  0.25768131     0.14700
C1059       C  0.58195003  0.40675257  0.18914614     0.86500
C1060       C  0.54010716  0.38329145  0.15739650    -0.53700
C1061       C  0.51894499  0.41179571  0.14777157     0.09400
C1062       C  0.54302461  0.46200389  0.17394824     0.20400
C1063       C  0.61774656  0.45755409  0.17252266    -0.54500
C1064       C  0.60044505  0.48929619  0.16619968     0.09500
C1065       C  0.55779875  0.41438054  0.22597182    -0.54000
C1066       C  0.53745594  0.44225490  0.21952042     0.10100
H1067       H  0.52511792  0.34539787  0.14824990     0.14600
H1068       H  0.52620484  0.48539328  0.16842925     0.00300
H1069       H  0.65656781  0.46967012  0.17180494     0.14900
H1070       H  0.55582043  0.39762789  0.25606817     0.14700
O1071       O  0.66176395  0.27247043  0.20915737    -0.85300
O1072       O  0.74612787  0.35470095  0.23106283    -0.82400
C1073       C  0.75328065  0.39043773  0.20749465     0.98100
O1074       O  0.72576847  0.40901679  0.20929467    -0.82400
O1075       O  0.64358593  0.41125042  0.23254392    -0.85100
C1076       C  0.60886617  0.38330887  0.20767577     1.02600
O1077       O  0.59110781  0.33727959  0.20841900    -0.77800
O1078       O  0.58849038  0.25210609  0.23151471    -0.78000
C1079       C  0.61624634  0.24452218  0.20799162     1.02600
O1080       O  0.63981436  0.25157461  0.29714978    -0.85300
O1081       O  0.71660796  0.33254539  0.31896833    -0.82400
C1082       C  0.74156079  0.37775439  0.32503119     0.98100
O1083       O  0.74805806  0.40709216  0.29578783    -0.82400
O1084       O  0.66773655  0.40254093  0.32070571    -0.85000
C1085       C  0.62283662  0.38121070  0.32705035     1.02600
O1086       O  0.59380576  0.36057105  0.29650310    -0.77900
O1087       O  0.59649680  0.28333989  0.31861111    -0.78000
C1088       C  0.61626727  0.25821895  0.32566594     1.02600
Cr1089     Cr  0.68984183  0.30519828  0.26334655     1.93700
Cr1090     Cr  0.69379310  0.40396819  0.26387288     1.93200
Cr1091     Cr  0.59605964  0.30959316  0.26288836     1.39100
O1092       O  0.65992268  0.33954065  0.26103115    -1.23100
N1093       N  0.93039973  0.11296411  0.13137122    -0.03500
C1094       C  0.95737162  0.11511964  0.16631966    -0.00900
C1095       C  0.44620693  0.14030277  0.19635311    -0.23800
C1096       C  0.92772098  0.16635563  0.17527786    -0.24000
C1097       C  0.92430913  0.15374895  0.13349576    -0.01000
H1098       H  0.46380773  0.15153373  0.22684016     0.12800
H1099       H  0.42909900  0.19936365  0.18748346     0.12800
N1100       N  0.88766085  0.06605870  0.12202258    -0.03500
C1101       C  0.89385803  0.02555610  0.11953673    -0.00900
C1102       C  0.88968311  0.51237430  0.07788276    -0.23800
C1103       C  0.87037171  0.03774766  0.05719596    -0.24000
C1104       C  0.85991319  0.06305774  0.08751222    -0.01000
H1105       H  0.88812080  0.47923230  0.06582559     0.12800
H1106       H  0.85182504  0.52590179  0.02711268     0.12800
C1107       C  0.91470667  0.36147947  0.52156520     0.86500
C1108       C  0.94842439  0.34698077  0.49933204    -0.53700
C1109       C  0.93001931  0.29729500  0.49261777     0.09400
C1110       C  0.87456518  0.26712751  0.50576779     0.20400
C1111       C  0.86836061  0.34190273  0.49437768    -0.54500
C1112       C  0.84704630  0.29240040  0.48409901     0.09500
C1113       C  0.89715481  0.32968321  0.55941493    -0.54000
C1114       C  0.87652611  0.28160605  0.55262672     0.10100
H1115       H  0.98716080  0.37356790  0.49689493     0.14600
H1116       H  0.85718088  0.22682580  0.49981775     0.00300
H1117       H  0.85271645  0.36461083  0.48632383     0.14900
H1118       H  0.89975256  0.34423628  0.59072270     0.14700
C1119       C  0.92281018  0.08267245  0.52319489     0.86500
C1120       C  0.87647992  0.04756155  0.49947557    -0.53700
C1121       C  0.84432473  0.06406934  0.49182482     0.09400
C1122       C  0.86754593  0.12005552  0.50465961     0.20400
C1123       C  0.94895320  0.12793567  0.49552977    -0.54500
C1124       C  0.92007191  0.14784472  0.48386949     0.09500
C1125       C  0.90811365  0.10124324  0.56027067    -0.54000
C1126       C  0.87936557  0.11985775  0.55215089     0.10100
H1127       H  0.86598990  0.00882439  0.49687833     0.14600
H1128       H  0.84390126  0.13609901  0.49715394     0.00300
H1129       H  0.98639635  0.14253977  0.48623544     0.14900
H1130       H  0.92024338  0.10033266  0.59203102     0.14700
C1131       C  0.62856004  0.07902835  0.52502885     0.86500
C1132       C  0.64450650  0.12775503  0.50454716    -0.53700
C1133       C  0.69362798  0.15541883  0.49699108     0.09400
C1134       C  0.72114298  0.12551599  0.50894622     0.20400
C1135       C  0.64230690  0.05081784  0.49479843    -0.54500
C1136       C  0.69224747  0.07111337  0.48865847     0.09500
C1137       C  0.66178504  0.08967994  0.56270657    -0.54000
C1138       C  0.70916121  0.11461822  0.55534528     0.10100
H1139       H  0.61961743  0.14230071  0.50254126     0.14600
H1140       H  0.76093594  0.14590327  0.50255148     0.00300
H1141       H  0.61619490  0.01208010  0.49022536     0.14900
H1142       H  0.64888671  0.07833447  0.59412626     0.14700
O1143       O  0.97735285  0.42103659  0.56386572    -0.85300
O1144       O  0.55297060  0.00991000  0.54365551    -0.82400
C1145       C  0.57987684  0.05599147  0.54406284     0.98100
O1146       O  0.57393794  0.08239386  0.57086848    -0.82400
O1147       O  0.99054078  0.07584935  0.54696578    -0.85100
C1148       C  0.94511606  0.05581976  0.54280506     1.02600
O1149       O  0.91638376  0.01906168  0.56502437    -0.77800
O1150       O  0.92135088  0.43847169  0.54249092    -0.78000
C1151       C  0.94113659  0.41222099  0.54022744     1.02600
O1152       O  0.99979069  0.45019355  0.65237234    -0.85300
O1153       O  0.57678645  0.03024775  0.63293348    -0.82400
C1154       C  0.56838957  0.05060986  0.66338943     0.98100
O1155       O  0.54102490  0.06827065  0.65811295    -0.82400
O1156       O  0.96347002  0.07010016  0.63359127    -0.85000
C1157       C  0.94202096  0.03905754  0.66187588     1.02600
O1158       O  0.92236967  0.99436122  0.65344977    -0.77900
O1159       O  0.92417874  0.41733189  0.63125139    -0.78000
C1160       C  0.95536542  0.42635073  0.66016986     1.02600
Cr1161     Cr  0.52451758  0.47892966  0.59743939     1.93700
Cr1162     Cr  0.51594565  0.07053461  0.60180614     1.93200
Cr1163     Cr  0.92440140  0.46970779  0.59738123     1.39100
O1164       O  0.98805921  0.00626347  0.59711858    -1.23100
N1165       N  0.71528810  0.00642047  0.46039036    -0.03500
C1166       C  0.70998303  0.03303678  0.49310294    -0.00900
C1167       C  0.68587805  0.99921914  0.52481811    -0.23800
C1168       C  0.65818728  0.45491722  0.50480431    -0.24000
C1169       C  0.67254671  0.46169361  0.46369720    -0.01000
H1170       H  0.67469519  0.00760305  0.55409374     0.12800
H1171       H  0.62331710  0.42721678  0.51634960     0.12800
N1172       N  0.76039040  0.00351905  0.46013158    -0.03500
C1173       C  0.75591698  0.45661770  0.45957203    -0.00900
C1174       C  0.75894420  0.44381616  0.50042147    -0.23800
C1175       C  0.77991616  0.98692493  0.52315062    -0.24000
C1176       C  0.79076247  0.02453343  0.49451732    -0.01000
H1177       H  0.75992059  0.41111487  0.51014858     0.12800
H1178       H  0.79884917  0.99127895  0.55272545     0.12800
N1179       N  0.98374078  0.22668109  0.45045766    -0.03500
C1180       C  0.50695266  0.22103662  0.41659142    -0.00900
C1181       C  0.96994090  0.19211110  0.38781150    -0.23800
C1182       C  0.92654971  0.16913920  0.40934183    -0.24000
C1183       C  0.93719773  0.18671802  0.44995655    -0.01000
H1184       H  0.47531537  0.17751340  0.35890347     0.12800
H1185       H  0.89473357  0.13500518  0.39927112     0.12800
N1186       N  0.98943376  0.27453084  0.45861672    -0.03500
C1187       C  0.96725502  0.27901425  0.49379398    -0.00900
C1188       C  0.00418779  0.30126693  0.52391838    -0.23800
C1189       C  0.54795138  0.32272146  0.50305691    -0.24000
C1190       C  0.53689729  0.31255674  0.46110258    -0.01000
H1191       H  0.99999908  0.31263765  0.55483889     0.12800
H1192       H  0.58245440  0.34998266  0.51646684     0.12800
N1193       N  0.76616697  0.27774595  0.45287536    -0.03500
C1194       C  0.77158082  0.30561183  0.41822556    -0.00900
C1195       C  0.79645890  0.29334879  0.38927418    -0.23800
C1196       C  0.81870655  0.27165451  0.41125020    -0.24000
C1197       C  0.80480146  0.26882534  0.45237794    -0.01000
H1198       H  0.80979459  0.31158561  0.35963817     0.12800
H1199       H  0.85096318  0.27118264  0.40071681     0.12800
N1200       N  0.71815183  0.23699497  0.46125894    -0.03500
C1201       C  0.67957322  0.24630297  0.46135698    -0.00900
C1202       C  0.66885489  0.24821011  0.50277477    -0.23800
C1203       C  0.69243531  0.22848052  0.52583613    -0.24000
C1204       C  0.71410853  0.21166070  0.49734073    -0.01000
H1205       H  0.63768210  0.25040782  0.51384012     0.12800
H1206       H  0.68107000  0.21371498  0.55686208     0.12800
C1207       C  0.55872863  0.42568400  0.39436380     0.86500
C1208       C  0.53061042  0.37814423  0.41974955    -0.53700
C1209       C  0.55739536  0.35596096  0.43092970     0.09400
C1210       C  0.61096513  0.38458465  0.41317077     0.20400
C1211       C  0.60601583  0.45966813  0.41898968    -0.54500
C1212       C  0.63339403  0.43849044  0.43026093     0.09500
C1213       C  0.57571590  0.41034212  0.35726083    -0.54000
C1214       C  0.60342500  0.39020294  0.36516083     0.10100
H1215       H  0.99245503  0.36305465  0.42715039     0.14600
H1216       H  0.63352324  0.36729169  0.42049604     0.00300
H1217       H  0.61723520  0.99768001  0.42554237     0.14900
H1218       H  0.56786915  0.41681425  0.32561490     0.14700
C1219       C  0.57114897  0.14873982  0.39401280     0.86500
C1220       C  0.61697058  0.17104856  0.42155458    -0.53700
C1221       C  0.63517202  0.22006831  0.43151753     0.09400
C1222       C  0.60393701  0.24191071  0.40957841     0.20400
C1223       C  0.53441294  0.15944056  0.41591225    -0.54500
C1224       C  0.54833853  0.20828507  0.42144549     0.09500
C1225       C  0.58665580  0.18065541  0.35607028    -0.54000
C1226       C  0.60379801  0.22840063  0.36289441     0.10100
H1227       H  0.63469993  0.15032121  0.43011797     0.14600
H1228       H  0.61841450  0.28179376  0.41559362     0.00300
H1229       H  0.99653418  0.13060181  0.41883712     0.14900
H1230       H  0.58426205  0.16639312  0.32479194     0.14700
C1231       C  0.85049649  0.44119971  0.39384479     0.86500
C1232       C  0.82981816  0.46751396  0.41985660    -0.53700
C1233       C  0.78081438  0.43889118  0.42879830     0.09400
C1234       C  0.75737100  0.38517255  0.40831744     0.20400
C1235       C  0.83757078  0.39308741  0.41635270    -0.54500
C1236       C  0.78850503  0.36086054  0.42193189     0.09500
C1237       C  0.81858579  0.42532940  0.35553672    -0.54000
C1238       C  0.77106540  0.39654893  0.36204787     0.10100
H1239       H  0.85157688  0.00604209  0.42803586     0.14600
H1240       H  0.71757307  0.36136625  0.41369310     0.00300
H1241       H  0.86443078  0.38111471  0.41882458     0.14900
H1242       H  0.83265899  0.43524349  0.32436990     0.14700
O1243       O  0.91155959  0.50448957  0.35298156    -0.85300
O1244       O  0.50392323  0.07134807  0.37556247    -0.82400
C1245       C  0.54974123  0.09770284  0.37675222     0.98100
O1246       O  0.57544137  0.08815757  0.35247771    -0.82400
O1247       O  0.55260912  0.49555922  0.37503695    -0.85100
C1248       C  0.53142058  0.44916828  0.37649106     1.02600
O1249       O  0.99507014  0.42306125  0.35250472    -0.77800
O1250       O  0.92575990  0.44638825  0.37497752    -0.78000
C1251       C  0.90121301  0.46826471  0.37671187     1.02600
O1252       O  0.94140677  0.52273052  0.26485044    -0.85300
O1253       O  0.52607869  0.09502013  0.28744697    -0.82400
C1254       C  0.54426383  0.08366109  0.25743614     0.98100
O1255       O  0.56071256  0.05518972  0.26401298    -0.82400
O1256       O  0.54909149  0.47065704  0.28789518    -0.85000
C1257       C  0.51955788  0.45288969  0.25745479     1.02600
O1258       O  0.47486039  0.43546462  0.26379083    -0.77900
O1259       O  0.90280425  0.44756201  0.28744098    -0.78000
C1260       C  0.91336227  0.47780192  0.25797773     1.02600
Cr1261     Cr  0.97180313  0.04626651  0.32078634     1.93700
Cr1262     Cr  0.55622991  0.02642698  0.32038781     1.93200
Cr1263     Cr  0.95190656  0.44120644  0.32024901     1.39100
O1264       O  0.99322827  0.00453315  0.32123224    -1.23100
C1265       C  0.90273860  0.31817105  0.72907943     0.86500
C1266       C  0.94862431  0.33783730  0.75685714    -0.53700
C1267       C  0.96984168  0.38754178  0.76656937     0.09400
C1268       C  0.94166618  0.41232982  0.74457189     0.20400
C1269       C  0.86863406  0.33217675  0.75089372    -0.54500
C1270       C  0.88594202  0.38162057  0.75714378     0.09500
C1271       C  0.92094073  0.34993779  0.69125644    -0.54000
C1272       C  0.94017584  0.39778732  0.69789568     0.10100
H1273       H  0.96389095  0.31506482  0.76601557     0.14600
H1274       H  0.95850579  0.45260382  0.75034861     0.00300
H1275       H  0.83002280  0.30501794  0.75300586     0.14900
H1276       H  0.91939197  0.33553735  0.66006067     0.14700
C1277       C  0.68129533  0.10733086  0.72898342     0.86500
C1278       C  0.66299702  0.13368697  0.75762474    -0.53700
C1279       C  0.61446463  0.10523879  0.76866434     0.09400
C1280       C  0.58904342  0.05198669  0.74682285     0.20400
C1281       C  0.66927972  0.05913316  0.75047006    -0.54500
C1282       C  0.62078407  0.02684638  0.75762691     0.09500
C1283       C  0.64727906  0.09334289  0.69193773    -0.54000
C1284       C  0.60007100  0.06479084  0.69992247     0.10100
H1285       H  0.68556656  0.17215419  0.76568679     0.14600
H1286       H  0.54959447  0.02849682  0.75369086     0.00300
H1287       H  0.69673027  0.04779166  0.75203507     0.14900
H1288       H  0.65971035  0.10618970  0.66059401     0.14700
C1289       C  0.89168011  0.09752379  0.72908196     0.86500
C1290       C  0.86733268  0.05451039  0.75949831    -0.53700
C1291       C  0.89527217  0.03284928  0.76946987     0.09400
C1292       C  0.94598166  0.05806349  0.74548766     0.20400
C1293       C  0.94177250  0.13344688  0.74789081    -0.54500
C1294       C  0.97293249  0.11547208  0.75501473     0.09500
C1295       C  0.90073669  0.07435708  0.69204344    -0.54000
C1296       C  0.92888651  0.05476820  0.69923371     0.10100
H1297       H  0.83016246  0.04036639  0.76894039     0.14600
H1298       H  0.96911958  0.04105840  0.75134122     0.00300
H1299       H  0.95422851  0.17272238  0.74860574     0.14900
H1300       H  0.88616225  0.07379766  0.66090592     0.14700
O1301       O  0.75797905  0.17672928  0.70805800    -0.85300
O1302       O  0.83964248  0.26074301  0.68627132    -0.82400
C1303       C  0.87535600  0.26789909  0.71010388     0.98100
O1304       O  0.89364504  0.24032807  0.70799542    -0.82400
O1305       O  0.89583819  0.15856016  0.68505991    -0.85100
C1306       C  0.86842216  0.12411540  0.70964361     1.02600
O1307       O  0.82278656  0.10552908  0.70777987    -0.77800
O1308       O  0.73788414  0.10219101  0.68601849    -0.78000
C1309       C  0.73065276  0.13068965  0.70961764     1.02600
O1310       O  0.73482670  0.15262663  0.62053107    -0.85300
O1311       O  0.81516386  0.22892579  0.59755182    -0.82400
C1312       C  0.85977074  0.25285731  0.59037473     0.98100
O1313       O  0.88995546  0.26149622  0.61992163    -0.82400
O1314       O  0.88601970  0.18115357  0.59713512    -0.85000
C1315       C  0.86541980  0.13617879  0.58936545     1.02600
O1316       O  0.84349128  0.10591530  0.61841742    -0.77900
O1317       O  0.76612671  0.10904854  0.59803813    -0.78000
C1318       C  0.74063159  0.12859140  0.59171098     1.02600
Cr1319     Cr  0.78949302  0.20372980  0.65374234     1.93700
Cr1320     Cr  0.88767762  0.20794705  0.65330514     1.93200
Cr1321     Cr  0.79396257  0.10929122  0.65339615     1.39100
O1322       O  0.82369974  0.17363985  0.65571045    -1.23100
N1323       N  0.83020601  0.44991287  0.79889074    -0.03500
C1324       C  0.87698153  0.99023194  0.80062528    -0.00900
C1325       C  0.88746337  0.00431380  0.84210500    -0.23800
C1326       C  0.84390369  0.97991801  0.86327310    -0.24000
C1327       C  0.80706897  0.45354176  0.83359597    -0.01000
H1328       H  0.91932668  0.03753117  0.85364223     0.12800
H1329       H  0.83843108  0.99248159  0.89320419     0.12800
N1330       N  0.82446970  0.40211683  0.78977151    -0.03500
C1331       C  0.77727882  0.36239610  0.78818448    -0.00900
C1332       C  0.76641574  0.34871015  0.74667118    -0.23800
C1333       C  0.80988927  0.37273235  0.72526552    -0.24000
C1334       C  0.84716788  0.39808137  0.75480476    -0.01000
H1335       H  0.73413671  0.31593660  0.73509270     0.12800
H1336       H  0.81477631  0.36017423  0.69511216     0.12800
N1337       N  0.59973843  0.44339667  0.78929340    -0.03500
C1338       C  0.63827566  0.43405130  0.78858853    -0.00900
C1339       C  0.65154703  0.93656231  0.74737412    -0.23800
C1340       C  0.62982961  0.95906853  0.72573334    -0.24000
C1341       C  0.60494178  0.47145273  0.75463075    -0.01000
H1342       H  0.68342139  0.93549732  0.73653029     0.12800
H1343       H  0.64312778  0.97718731  0.69606555     0.12800
N1344       N  0.55153496  0.40259187  0.79726142    -0.03500
C1345       C  0.54623582  0.37532850  0.83242399    -0.00900
C1346       C  0.02165505  0.38846877  0.86099069    -0.23800
C1347       C  0.99989718  0.41046519  0.83872694    -0.24000
C1348       C  0.51301034  0.41188288  0.79755759    -0.01000
H1349       H  0.00846294  0.37102668  0.89091414     0.12800
H1350       H  0.96815323  0.41193812  0.84930062     0.12800
N1351       N  0.59780350  0.17207961  0.79745649    -0.03500
C1352       C  0.62584146  0.19660962  0.83205101    -0.00900
C1353       C  0.61509350  0.16057901  0.86215560    -0.23800
C1354       C  0.59536820  0.11585252  0.84123219    -0.24000
C1355       C  0.59130715  0.12499931  0.79954807    -0.01000
H1356       H  0.63353916  0.16707915  0.89225799     0.12800
H1357       H  0.59657813  0.08407716  0.85320567     0.12800
N1358       N  0.55515716  0.17673655  0.78884921    -0.03500
C1359       C  0.02824076  0.15330380  0.75347729    -0.00900
C1360       C  0.04086506  0.19047332  0.72404240    -0.23800
C1361       C  0.05982049  0.23457409  0.74592493    -0.24000
C1362       C  0.56165680  0.22388090  0.78755429    -0.01000
H1363       H  0.02391097  0.18514748  0.69337927     0.12800
H1364       H  0.05938271  0.26687056  0.73423308     0.12800
C1365       C  0.76129776  0.25378173  0.85723110     0.86500
C1366       C  0.71279452  0.21846106  0.83535283    -0.53700
C1367       C  0.68062628  0.23540018  0.82893413     0.09400
C1368       C  0.70559683  0.29165029  0.84134397     0.20400
C1369       C  0.78671283  0.29900908  0.82962848    -0.54500
C1370       C  0.75822437  0.31983366  0.81949094     0.09500
C1371       C  0.74886797  0.27347243  0.89488044    -0.54000
C1372       C  0.71895605  0.29124515  0.88833710     0.10100
H1373       H  0.70120237  0.17943932  0.83363239     0.14600
H1374       H  0.68197998  0.30803538  0.83518728     0.00300
H1375       H  0.82442025  0.31435212  0.82101045     0.14900
H1376       H  0.76083336  0.27064684  0.92617943     0.14700
C1377       C  0.74611045  0.02843659  0.85769489     0.86500
C1378       C  0.78195409  0.01639881  0.83659695    -0.53700
C1379       C  0.76673467  0.46758333  0.83032347     0.09400
C1380       C  0.71100929  0.43496983  0.84180372     0.20400
C1381       C  0.70100709  0.00790186  0.82945138    -0.54500
C1382       C  0.68150480  0.45855012  0.81948992     0.09500
C1383       C  0.72778857  0.49608785  0.89527900    -0.54000
C1384       C  0.71078992  0.44838436  0.88855081     0.10100
H1385       H  0.82033352  0.04456341  0.83542872     0.14600
H1386       H  0.69579238  0.39498880  0.83560160     0.00300
H1387       H  0.68461331  0.02968521  0.82053627     0.14900
H1388       H  0.73009175  0.51050806  0.92647689     0.14700
C1389       C  0.96856766  0.23821575  0.85679749     0.86500
C1390       C  0.98115263  0.28750028  0.83668754    -0.53700
C1391       C  0.52975136  0.31992711  0.83023371     0.09400
C1392       C  0.56134843  0.29507020  0.84110428     0.20400
C1393       C  0.98795230  0.21331357  0.82767815    -0.54500
C1394       C  0.53693412  0.24249408  0.81793655     0.09500
C1395       C  0.50168906  0.25057879  0.89424342    -0.54000
C1396       C  0.54897085  0.28062972  0.88759702     0.10100
H1397       H  0.95383610  0.29901444  0.83510443     0.14600
H1398       H  0.60099044  0.31922292  0.83532560     0.00300
H1399       H  0.96581787  0.17516084  0.81857314     0.14900
H1400       H  0.48812978  0.23811521  0.92533751     0.14700
O1401       O  0.80800042  0.08576834  0.90024061    -0.85300
O1402       O  0.89121312  0.16863430  0.87789936    -0.82400
C1403       C  0.91896463  0.21472826  0.87607498     0.98100
O1404       O  0.91253234  0.24350945  0.89998667    -0.82400
O1405       O  0.82967934  0.24396186  0.87795417    -0.85100
C1406       C  0.78413007  0.22638093  0.87602362     1.02600
O1407       O  0.75580827  0.19098146  0.89944379    -0.77800
O1408       O  0.75500175  0.10701825  0.87722523    -0.78000
C1409       C  0.77255621  0.07870291  0.87629904     1.02600
O1410       O  0.83112868  0.11631120  0.98861012    -0.85300
O1411       O  0.91304878  0.19187238  0.96497966    -0.82400
C1412       C  0.90680460  0.21422059  0.99484387     0.98100
O1413       O  0.88357742  0.23626440  0.98853882    -0.82400
O1414       O  0.80810914  0.24262765  0.96573076    -0.85000
C1415       C  0.78572318  0.21304866  0.99489663     1.02600
O1416       O  0.76382057  0.16792203  0.98763318    -0.77900
O1417       O  0.75720572  0.08594401  0.96458577    -0.78000
C1418       C  0.78613133  0.09290866  0.99474185     1.02600
Cr1419     Cr  0.85841257  0.14179473  0.93226127     1.93700
Cr1420     Cr  0.85719595  0.23793330  0.93233071     1.93200
Cr1421     Cr  0.76168609  0.14049866  0.93148843     1.39100
O1422       O  0.82574834  0.17342113  0.92948932    -1.23100
C1423       C  0.74017579  0.77569803  0.06393621     0.86500
C1424       C  0.70555582  0.72772955  0.08578708    -0.53700
C1425       C  0.72174682  0.69482715  0.09194970     0.09400
C1426       C  0.77730210  0.71917488  0.07965967     0.20400
C1427       C  0.78598021  0.80173407  0.09137746    -0.54500
C1428       C  0.80636331  0.77274922  0.10138745     0.09500
C1429       C  0.75818401  0.76163071  0.02623951    -0.54000
C1430       C  0.77618014  0.73186293  0.03286188     0.10100
H1431       H  0.66698753  0.71648094  0.08660119     0.14600
H1432       H  0.79346009  0.69528859  0.08578091     0.00300
H1433       H  0.80225176  0.84027337  0.09950166     0.14900
H1434       H  0.75478625  0.77286422  0.99494489     0.14700
C1435       C  0.51596919  0.76005672  0.06304970     0.86500
C1436       C  0.50383942  0.79718453  0.08263951    -0.53700
C1437       C  0.95541375  0.78145472  0.08957754     0.09400
C1438       C  0.92354768  0.72479022  0.07938151     0.20400
C1439       C  0.49677012  0.71623666  0.09246763    -0.54500
C1440       C  0.94808501  0.69675802  0.10268767     0.09500
C1441       C  0.98260666  0.73887745  0.02591143    -0.54000
C1442       C  0.93546768  0.72251608  0.03275908     0.10100
H1443       H  0.53118511  0.83612025  0.08227312     0.14600
H1444       H  0.88402145  0.70940889  0.08549566     0.00300
H1445       H  0.51873321  0.70008445  0.10129495     0.14900
H1446       H  0.99614088  0.73987798  0.99479436     0.14700
C1447       C  0.72380960  0.98474754  0.06374791     0.86500
C1448       C  0.77286723  0.99786317  0.08419259    -0.53700
C1449       C  0.80526808  0.54694060  0.09097435     0.09400
C1450       C  0.78043708  0.57848062  0.07993299     0.20400
C1451       C  0.69950117  0.00440192  0.09269010    -0.54500
C1452       C  0.72836844  0.55384553  0.10278741     0.09500
C1453       C  0.73535404  0.51728080  0.02637687    -0.49800
C1454       C  0.76612408  0.56509388  0.03300988     0.10100
H1455       H  0.78444836  0.97042854  0.08457398     0.14600
H1456       H  0.80441117  0.61852896  0.08621692     0.00300
H1457       H  0.66216234  0.98182038  0.10231239     0.14900
H1458       H  0.72245621  0.50261327  0.99523654     0.14700
O1459       O  0.57230447  0.82159134  0.02011971    -0.85300
O1460       O  0.65502996  0.90596938  0.04304234    -0.82400
C1461       C  0.70059532  0.93430449  0.04490936     0.98100
O1462       O  0.72886394  0.92728595  0.02151401    -0.82400
O1463       O  0.72951356  0.84423102  0.04442041    -0.85100
C1464       C  0.71260083  0.79838940  0.04534282     1.02600
O1465       O  0.67715182  0.76947483  0.02140103    -0.77800
O1466       O  0.59320505  0.76791260  0.04240974    -0.78000
C1467       C  0.56550722  0.78613373  0.04388555     1.02600
O1468       O  0.60226158  0.84440103  0.93231904    -0.85300
O1469       O  0.67740732  0.92639341  0.95528340    -0.82400
C1470       C  0.70040059  0.91962560  0.92640193     0.98100
O1471       O  0.72186317  0.89613135  0.93378997    -0.82400
O1472       O  0.72793523  0.82070759  0.95696213    -0.85000
C1473       C  0.69916120  0.79896004  0.92658812     1.02600
O1474       O  0.65423611  0.77691702  0.93254425    -0.77900
O1475       O  0.57215635  0.76962105  0.95460504    -0.78000
C1476       C  0.57834202  0.79920811  0.92542869     1.02600
Cr1477     Cr  0.62798529  0.87215761  0.98849583     1.93700
Cr1478     Cr  0.72331667  0.87077946  0.98992608     1.93200
Cr1479     Cr  0.62665803  0.77462273  0.98850274     1.39100
O1480       O  0.65926722  0.83917847  0.99152098    -1.23100
N1481       N  0.65716326  0.61213422  0.12148655    -0.03500
C1482       C  0.68214189  0.63988854  0.08759654    -0.00900
C1483       C  0.64675060  0.62972886  0.05666519    -0.23800
C1484       C  0.60214212  0.60986967  0.07628132    -0.24000
C1485       C  0.61031185  0.60467793  0.11801729    -0.01000
H1486       H  0.65369011  0.64852667  0.02698624     0.12800
H1487       H  0.57083845  0.61131786  0.06363906     0.12800
N1488       N  0.66254886  0.57033502  0.13204119    -0.03500
C1489       C  0.63941934  0.54485801  0.16747064    -0.00900
C1490       C  0.67681669  0.05750238  0.19702927    -0.23800
C1491       C  0.72025092  0.07567888  0.17561053    -0.24000
C1492       C  0.70952746  0.57761324  0.13397133    -0.01000
H1493       H  0.67180882  0.04111396  0.22767869     0.12800
H1494       H  0.75231859  0.07525528  0.18761246     0.12800
N1495       N  0.93639603  0.84577783  0.11949690    -0.03500
C1496       C  0.97590715  0.89282961  0.11693913    -0.00900
C1497       C  0.48849613  0.90118107  0.07533111    -0.23800
C1498       C  0.46391997  0.85609106  0.05499091    -0.24000
C1499       C  0.93938615  0.82062202  0.08540052    -0.01000
H1500       H  0.52101317  0.93271848  0.06334511     0.12800
H1501       H  0.47557161  0.84905464  0.02534381     0.12800
N1502       N  0.88935988  0.84029344  0.12918123    -0.03500
C1503       C  0.85051127  0.79268758  0.13130659    -0.00900
C1504       C  0.83997012  0.78260458  0.17307799    -0.23800
C1505       C  0.86443070  0.82713824  0.19439461    -0.24000
C1506       C  0.88666170  0.86394016  0.16459421    -0.01000
H1507       H  0.80866007  0.75004091  0.18522517     0.12800
H1508       H  0.85368068  0.83257827  0.22505768     0.12800
C1509       C  0.80346895  0.91761150  0.18930027     0.86500
C1510       C  0.82140568  0.96138290  0.15981021    -0.53700
C1511       C  0.87053538  0.98302088  0.15020366     0.09400
C1512       C  0.89696867  0.95816372  0.17420064     0.20400
C1513       C  0.81859660  0.88238750  0.17031866    -0.54500
C1514       C  0.86763746  0.90104178  0.16364860     0.09500
C1515       C  0.83588449  0.94013156  0.22678691    -0.54000
C1516       C  0.88363068  0.96095117  0.22032504     0.10100
H1517       H  0.79844043  0.97637968  0.15138789     0.14600
H1518       H  0.93685777  0.97570511  0.16876209     0.00300
H1519       H  0.79265823  0.84304822  0.16912080     0.14900
H1520       H  0.82193870  0.94048911  0.25738332     0.14700
C1521       C  0.59332034  0.69419305  0.18985871     0.86500
C1522       C  0.61801736  0.67627615  0.15984146    -0.53700
C1523       C  0.59031700  0.62693687  0.14922743     0.09400
C1524       C  0.53935318  0.60037337  0.17320530     0.20400
C1525       C  0.54375232  0.68005416  0.17067196    -0.54500
C1526       C  0.51230155  0.63100775  0.16391073     0.09500
C1527       C  0.58407048  0.66169208  0.22691898    -0.54000
C1528       C  0.55652082  0.61347868  0.21979375     0.10100
H1529       H  0.65557871  0.69948158  0.15155818     0.14600
H1530       H  0.51642466  0.56027111  0.16670242     0.00300
H1531       H  0.53165554  0.70709485  0.16976974     0.14900
H1532       H  0.59931634  0.67605111  0.25766654     0.14700
C1533       C  0.58191479  0.90673349  0.18911456     0.86500
C1534       C  0.54002887  0.88324736  0.15740695    -0.53700
C1535       C  0.51887479  0.91175988  0.14778462     0.09400
C1536       C  0.54299484  0.96199131  0.17392929     0.20400
C1537       C  0.61770007  0.95751296  0.17244262    -0.54500
C1538       C  0.60040643  0.98926538  0.16612897     0.09500
C1539       C  0.55781635  0.91440867  0.22595453    -0.54000
C1540       C  0.53747347  0.94228163  0.21951140     0.10100
H1541       H  0.52501381  0.84534403  0.14828648     0.14600
H1542       H  0.52617554  0.98538144  0.16841239     0.00300
H1543       H  0.65651781  0.96961794  0.17170793     0.14900
H1544       H  0.55585240  0.89766709  0.25605218     0.14700
O1545       O  0.66176239  0.77248696  0.20913624    -0.85300
O1546       O  0.74611576  0.85475120  0.23104569    -0.82400
C1547       C  0.75327695  0.89050253  0.20749383     0.98100
O1548       O  0.72576513  0.90908105  0.20929638    -0.82400
O1549       O  0.64354938  0.91124702  0.23251982    -0.85100
C1550       C  0.60883557  0.88329768  0.20764890     1.02600
O1551       O  0.59108753  0.83726997  0.20839202    -0.77800
O1552       O  0.58848742  0.75211117  0.23149493    -0.78000
C1553       C  0.61624453  0.74452961  0.20797436     1.02600
O1554       O  0.63983129  0.75160101  0.29713492    -0.85300
O1555       O  0.71661011  0.83258395  0.31894031    -0.82400
C1556       C  0.74156055  0.87778977  0.32501285     0.98100
O1557       O  0.74803689  0.90714357  0.29578749    -0.82400
O1558       O  0.66768421  0.90252939  0.32069376    -0.85000
C1559       C  0.62278303  0.88118637  0.32702976     1.02600
O1560       O  0.59376390  0.86055459  0.29647462    -0.77900
O1561       O  0.59648619  0.78333804  0.31858938    -0.78000
C1562       C  0.61628221  0.75824029  0.32565166     1.02600
Cr1563     Cr  0.68984206  0.80523133  0.26332428     1.93700
Cr1564     Cr  0.69376144  0.90398972  0.26386448     1.93200
Cr1565     Cr  0.59604257  0.80959004  0.26286438     1.39100
O1566       O  0.65990844  0.83955847  0.26101069    -1.23100
N1567       N  0.93037893  0.61294439  0.13136791    -0.03500
C1568       C  0.95736737  0.61510609  0.16630699    -0.00900
C1569       C  0.44620649  0.64028070  0.19635002    -0.23800
C1570       C  0.92770135  0.66632403  0.17528943    -0.24000
C1571       C  0.92428000  0.65372382  0.13350465    -0.01000
H1572       H  0.46382008  0.65151446  0.22683345     0.12800
H1573       H  0.42907325  0.69932588  0.18750258     0.12800
N1574       N  0.88764102  0.56603616  0.12202022    -0.03500
C1575       C  0.89383524  0.52553020  0.11952882    -0.00900
C1576       C  0.88970996  0.01239564  0.07789300    -0.23800
C1577       C  0.87035337  0.53773646  0.05718938    -0.24000
C1578       C  0.85989718  0.56304402  0.08750933    -0.01000
H1579       H  0.88815116  0.97925254  0.06584072     0.12800
H1580       H  0.85184173  0.02590520  0.02712134     0.12800
C1581       C  0.91474655  0.86150214  0.52156977     0.86500
C1582       C  0.94849292  0.84700231  0.49939158    -0.53700
C1583       C  0.93009020  0.79731859  0.49267665     0.09400
C1584       C  0.87462089  0.76715097  0.50577860     0.20400
C1585       C  0.86843947  0.84193159  0.49433537    -0.54500
C1586       C  0.84712755  0.79242696  0.48406537     0.09500
C1587       C  0.89713765  0.82970530  0.55941627    -0.54000
C1588       C  0.87652611  0.78162888  0.55263050     0.10100
H1589       H  0.98723007  0.87358657  0.49697934     0.14600
H1590       H  0.85724490  0.72684908  0.49983322     0.00300
H1591       H  0.85280544  0.86464485  0.48625549     0.14900
H1592       H  0.89969617  0.84425439  0.59071652     0.14700
C1593       C  0.92282374  0.58267458  0.52321000     0.86500
C1594       C  0.87650384  0.54758570  0.49946921    -0.53700
C1595       C  0.84435740  0.56410686  0.49182042     0.09400
C1596       C  0.86759569  0.62009373  0.50466545     0.20400
C1597       C  0.94899545  0.62794822  0.49556192    -0.54500
C1598       C  0.92013445  0.64787566  0.48389362     0.09500
C1599       C  0.90811699  0.60123765  0.56028458    -0.54000
C1600       C  0.87938967  0.61987440  0.55215903     0.10100
H1601       H  0.86600527  0.50884725  0.49687107     0.14600
H1602       H  0.84396781  0.63615441  0.49715430     0.00300
H1603       H  0.98644593  0.64254624  0.48628203     0.14900
H1604       H  0.92022748  0.60030889  0.59204760     0.14700
C1605       C  0.62857810  0.57904712  0.52502484     0.86500
C1606       C  0.64454455  0.62777418  0.50452757    -0.53700
C1607       C  0.69367081  0.65541926  0.49696928     0.09400
C1608       C  0.72116412  0.62550386  0.50894499     0.20400
C1609       C  0.64231723  0.55081445  0.49481501    -0.54500
C1610       C  0.69225428  0.57109775  0.48867451     0.09500
C1611       C  0.66179954  0.58970716  0.56270611    -0.54000
C1612       C  0.70917753  0.61462738  0.55534487     0.10100
H1613       H  0.61967043  0.64233662  0.50251546     0.14600
H1614       H  0.76095766  0.64587420  0.50255111     0.00300
H1615       H  0.61620424  0.51207211  0.49026831     0.14900
H1616       H  0.64889770  0.57837712  0.59412554     0.14700
O1617       O  0.97735796  0.92104093  0.56389805    -0.85300
O1618       O  0.55297415  0.50992453  0.54363640    -0.82400
C1619       C  0.57988786  0.55600669  0.54405378     0.98100
O1620       O  0.57394499  0.58240097  0.57086290    -0.82400
O1621       O  0.99053514  0.57581762  0.54696050    -0.85100
C1622       C  0.94511108  0.55580592  0.54281863     1.02600
O1623       O  0.91637790  0.51905652  0.56504742    -0.77800
O1624       O  0.92139144  0.93849945  0.54247207    -0.78000
C1625       C  0.94116850  0.91223979  0.54023226     1.02600
O1626       O  0.99977848  0.95021838  0.65239496    -0.85300
O1627       O  0.57678787  0.53023550  0.63292084    -0.82400
C1628       C  0.56839612  0.55060527  0.66337543     0.98100
O1629       O  0.54103427  0.56826931  0.65810044    -0.82400
O1630       O  0.96347367  0.57009140  0.63358526    -0.85000
C1631       C  0.94204397  0.53906429  0.66188411     1.02600
O1632       O  0.92240460  0.49436488  0.65347565    -0.77900
O1633       O  0.92417551  0.91734386  0.63124415    -0.78000
C1634       C  0.95535001  0.92636584  0.66017564     1.02600
Cr1635     Cr  0.52451500  0.97893766  0.59746094     1.93700
Cr1636     Cr  0.51594693  0.57052412  0.60179910     1.93200
Cr1637     Cr  0.92440259  0.96971685  0.59736244     1.39100
O1638       O  0.98805990  0.50625126  0.59711460    -1.23100
N1639       N  0.71528401  0.50640157  0.46042822    -0.03500
C1640       C  0.70997660  0.53301817  0.49313426    -0.00900
C1641       C  0.68587993  0.49920892  0.52485759    -0.23800
C1642       C  0.65816156  0.95493488  0.50475089    -0.24000
C1643       C  0.67254413  0.96172479  0.46364804    -0.01000
H1644       H  0.67469758  0.50760104  0.55413164     0.12800
H1645       H  0.62330076  0.92726596  0.51627257     0.12800
N1646       N  0.76040150  0.50353088  0.46016568    -0.03500
C1647       C  0.75588466  0.95659402  0.45952414    -0.00900
C1648       C  0.75887081  0.94376171  0.50037096    -0.23800
C1649       C  0.77996655  0.48698903  0.52318900    -0.24000
C1650       C  0.79079039  0.52457805  0.49453957    -0.01000
H1651       H  0.75981594  0.91104104  0.51009089     0.12800
H1652       H  0.79891406  0.49136829  0.55276014     0.12800
N1653       N  0.98382760  0.72672353  0.45050686    -0.03500
C1654       C  0.50705246  0.72110643  0.41663740    -0.00900
C1655       C  0.97005326  0.69220193  0.38784219    -0.23800
C1656       C  0.92665803  0.66920084  0.40936502    -0.24000
C1657       C  0.93728735  0.68675726  0.44998630    -0.01000
H1658       H  0.47544007  0.67762761  0.35892700     0.12800
H1659       H  0.89484965  0.63506760  0.39927876     0.12800
N1660       N  0.98950199  0.77456307  0.45867469    -0.03500
C1661       C  0.96732127  0.77903348  0.49385576    -0.00900
C1662       C  0.00425681  0.80129176  0.52397551    -0.23800
C1663       C  0.54802402  0.82277497  0.50310873    -0.24000
C1664       C  0.53695403  0.81260111  0.46115199    -0.01000
H1665       H  0.00007078  0.81265650  0.55490161     0.12800
H1666       H  0.58249967  0.85002291  0.51650714     0.12800
N1667       N  0.76624510  0.77775099  0.45283040    -0.03500
C1668       C  0.77165109  0.80561377  0.41817925    -0.00900
C1669       C  0.79654845  0.79336668  0.38923299    -0.23800
C1670       C  0.81880361  0.77168194  0.41121281    -0.24000
C1671       C  0.80488866  0.76884264  0.45233840    -0.01000
H1672       H  0.80988369  0.81160475  0.35959834     0.12800
H1673       H  0.85106822  0.77122118  0.40068343     0.12800
N1674       N  0.71823170  0.73699906  0.46121980    -0.03500
C1675       C  0.67966219  0.74631879  0.46132480    -0.00900
C1676       C  0.66896254  0.74824468  0.50274483    -0.23800
C1677       C  0.69254188  0.72851263  0.52580380    -0.24000
C1678       C  0.71418774  0.71166785  0.49730520    -0.01000
H1679       H  0.63780119  0.75045911  0.51381679     0.12800
H1680       H  0.68118615  0.71375933  0.55683568     0.12800
C1681       C  0.55870245  0.92566668  0.39436089     0.86500
C1682       C  0.53062055  0.87816416  0.41979777    -0.53700
C1683       C  0.55742352  0.85599527  0.43096976     0.09400
C1684       C  0.61096556  0.88459444  0.41315399     0.20400
C1685       C  0.60602407  0.95968268  0.41893350    -0.54500
C1686       C  0.63341389  0.93851848  0.43019865     0.09500
C1687       C  0.57562537  0.91026208  0.35725504    -0.54000
C1688       C  0.60335675  0.89014775  0.36514553     0.10100
H1689       H  0.99247596  0.86308152  0.42722394     0.14600
H1690       H  0.63353723  0.86731414  0.42047133     0.00300
H1691       H  0.61722935  0.49766408  0.42559997     0.14900
H1692       H  0.56772555  0.91668495  0.32560826     0.14700
C1693       C  0.57118390  0.64877320  0.39401637     0.86500
C1694       C  0.61703325  0.67107379  0.42152605    -0.53700
C1695       C  0.63525591  0.72009805  0.43149025     0.09400
C1696       C  0.60401882  0.74195290  0.40957738     0.20400
C1697       C  0.53448443  0.65949388  0.41595277    -0.54500
C1698       C  0.54843051  0.70834509  0.42148353     0.09500
C1699       C  0.58666109  0.68067929  0.35606288    -0.54000
C1700       C  0.60383107  0.72843291  0.36288964     0.10100
H1701       H  0.63475345  0.65033680  0.43007960     0.14600
H1702       H  0.61851512  0.78183973  0.41559363     0.00300
H1703       H  0.99660602  0.63066634  0.41889294     0.14900
H1704       H  0.58422561  0.66641614  0.32479976     0.14700
C1705       C  0.85051132  0.94121685  0.39381359     0.86500
C1706       C  0.82982272  0.96751198  0.41984218    -0.53700
C1707       C  0.78081652  0.93887535  0.42877475     0.09400
C1708       C  0.75739131  0.88516091  0.40828685     0.20400
C1709       C  0.83760211  0.89310039  0.41630553    -0.54500
C1710       C  0.78854379  0.86085850  0.42188436     0.09500
C1711       C  0.81859601  0.92535382  0.35551158    -0.54000
C1712       C  0.77108130  0.89656375  0.36201911     0.10100
H1713       H  0.85158305  0.50604875  0.42804324     0.14600
H1714       H  0.71759519  0.86134166  0.41366052     0.00300
H1715       H  0.86447224  0.88114013  0.41876982     0.14900
H1716       H  0.83267305  0.93529700  0.32432802     0.14700
O1717       O  0.91156992  0.00450401  0.35294701    -0.85300
O1718       O  0.50392232  0.57138856  0.37557031    -0.82400
C1719       C  0.54974454  0.59773083  0.37675174     0.98100
O1720       O  0.57542972  0.58817410  0.35247049    -0.82400
O1721       O  0.55257487  0.99553594  0.37504544    -0.85100
C1722       C  0.53138943  0.94914593  0.37649342     1.02600
O1723       O  0.99504509  0.92304255  0.35250113    -0.77800
O1724       O  0.92578022  0.94641932  0.37496422    -0.78000
C1725       C  0.90122647  0.96828806  0.37668662     1.02600
O1726       O  0.94144193  0.02274408  0.26482759    -0.85300
O1727       O  0.52603385  0.59502558  0.28744436    -0.82400
C1728       C  0.54422284  0.58366914  0.25743474     0.98100
O1729       O  0.56066873  0.55519507  0.26400951    -0.82400
O1730       O  0.54908356  0.97063274  0.28790260    -0.85000
C1731       C  0.51956051  0.95288928  0.25745175     1.02600
O1732       O  0.47485990  0.93545784  0.26378133    -0.77900
O1733       O  0.90281461  0.94757947  0.28743000    -0.78000
C1734       C  0.91337693  0.97781682  0.25796434     1.02600
Cr1735     Cr  0.97177945  0.54626561  0.32080409     1.93700
Cr1736     Cr  0.55622166  0.52644432  0.32038265     1.93200
Cr1737     Cr  0.95190567  0.94120760  0.32023800     1.39100
O1738       O  0.99321743  0.50453841  0.32124855    -1.23100
C1739       C  0.90273907  0.81818005  0.72908009     0.86500
C1740       C  0.94863531  0.83785120  0.75684310    -0.53700
C1741       C  0.96984355  0.88755240  0.76656132     0.09400
C1742       C  0.94165829  0.91233611  0.74457685     0.20400
C1743       C  0.86863898  0.83217619  0.75091544    -0.54500
C1744       C  0.88594140  0.88162051  0.75716156     0.09500
C1745       C  0.92091754  0.84994896  0.69125628    -0.54000
C1746       C  0.94015046  0.89779685  0.69789769     0.10100
H1747       H  0.96390500  0.81508229  0.76600039     0.14600
H1748       H  0.95849528  0.95260891  0.75035810     0.00300
H1749       H  0.83003104  0.80501158  0.75303968     0.14900
H1750       H  0.91935871  0.83554961  0.66005495     0.14700
C1751       C  0.68130169  0.60733814  0.72897046     0.86500
C1752       C  0.66300137  0.63369329  0.75760995    -0.53700
C1753       C  0.61446871  0.60524115  0.76864831     0.09400
C1754       C  0.58905077  0.55198916  0.74680589     0.20400
C1755       C  0.66928967  0.55914448  0.75046001    -0.54500
C1756       C  0.62079405  0.52685243  0.75760880     0.09500
C1757       C  0.64728709  0.59334932  0.69192332    -0.54000
C1758       C  0.60007957  0.56479220  0.69990624     0.10100
H1759       H  0.68556677  0.67215700  0.76567121     0.14600
H1760       H  0.54960188  0.52849663  0.75367318     0.00300
H1761       H  0.69674503  0.54780868  0.75203212     0.14900
H1762       H  0.65971944  0.60620125  0.66058033     0.14700
C1763       C  0.89169340  0.59753380  0.72908159     0.86500
C1764       C  0.86733814  0.55450921  0.75948631    -0.53700
C1765       C  0.89528024  0.53285295  0.76946344     0.09400
C1766       C  0.94599648  0.55807559  0.74549371     0.20400
C1767       C  0.94177597  0.63345333  0.74790765    -0.54500
C1768       C  0.97293904  0.61548065  0.75502901     0.09500
C1769       C  0.90077043  0.57438297  0.69204291    -0.54000
C1770       C  0.92891731  0.55479120  0.69923717     0.10100
H1771       H  0.83016221  0.54035596  0.76891891     0.14600
H1772       H  0.96913476  0.54107199  0.75135244     0.00300
H1773       H  0.95422673  0.67272642  0.74862989     0.14900
H1774       H  0.88620151  0.57382674  0.66090294     0.14700
O1775       O  0.75798709  0.67673519  0.70805613    -0.85300
O1776       O  0.83964307  0.76074844  0.68627842    -0.82400
C1777       C  0.87536147  0.76790897  0.71010611     0.98100
O1778       O  0.89365701  0.74034387  0.70799397    -0.82400
O1779       O  0.89585284  0.65857509  0.68505910    -0.85100
C1780       C  0.86843683  0.62412783  0.70964190     1.02600
O1781       O  0.82280154  0.60554628  0.70778219    -0.77800
O1782       O  0.73789444  0.60219985  0.68601144    -0.78000
C1783       C  0.73065972  0.63069666  0.70960999     1.02600
O1784       O  0.73484120  0.65263686  0.62052821    -0.85300
O1785       O  0.81517126  0.72894531  0.59755704    -0.82400
C1786       C  0.85977729  0.75287929  0.59037808     0.98100
O1787       O  0.88996555  0.76151536  0.61992141    -0.82400
O1788       O  0.88602843  0.68117253  0.59713270    -0.85000
C1789       C  0.86544020  0.63619737  0.58936972     1.02600
O1790       O  0.84351588  0.60593677  0.61842461    -0.77900
O1791       O  0.76614539  0.60906054  0.59803722    -0.78000
C1792       C  0.74064706  0.62860012  0.59171011     1.02600
Cr1793     Cr  0.78950093  0.70374005  0.65374401     1.93700
Cr1794     Cr  0.88768928  0.70796417  0.65330388     1.93200
Cr1795     Cr  0.79397936  0.60930603  0.65339651     1.39100
O1796       O  0.82371184  0.67365456  0.65571045    -1.23100
N1797       N  0.83019809  0.94990417  0.79889994    -0.03500
C1798       C  0.87699042  0.49023755  0.80061823    -0.00900
C1799       C  0.88746904  0.50432364  0.84209719    -0.23800
C1800       C  0.84390660  0.47993811  0.86326105    -0.24000
C1801       C  0.80706240  0.95352378  0.83360989    -0.01000
H1802       H  0.91933392  0.53754150  0.85363427     0.12800
H1803       H  0.83843156  0.49250946  0.89318742     0.12800
N1804       N  0.82446565  0.90211063  0.78977935    -0.03500
C1805       C  0.77727799  0.86238608  0.78819602    -0.00900
C1806       C  0.76641529  0.84868487  0.74668590    -0.23800
C1807       C  0.80988588  0.87271105  0.72527752    -0.24000
C1808       C  0.84716363  0.89807322  0.75481462    -0.01000
H1809       H  0.73414063  0.81590154  0.73511345     0.12800
H1810       H  0.81477576  0.86014750  0.69512818     0.12800
N1811       N  0.59971871  0.94338758  0.78932516    -0.03500
C1812       C  0.63824524  0.93402520  0.78861233    -0.00900
C1813       C  0.65160157  0.43661139  0.74735549    -0.23800
C1814       C  0.62986961  0.45909875  0.72570850    -0.24000
C1815       C  0.60492389  0.97144297  0.75466066    -0.01000
H1816       H  0.68349297  0.43557167  0.73652183     0.12800
H1817       H  0.64317369  0.47722701  0.69604522     0.12800
N1818       N  0.55151033  0.90258744  0.79728689    -0.03500
C1819       C  0.54618796  0.87530316  0.83244063    -0.00900
C1820       C  0.02157253  0.88841106  0.86099879    -0.23800
C1821       C  0.99983312  0.91042366  0.83873299    -0.24000
C1822       C  0.51298666  0.91187929  0.79757054    -0.01000
H1823       H  0.00835191  0.87094168  0.89090824     0.12800
H1824       H  0.96807543  0.91188126  0.84929050     0.12800
N1825       N  0.59781336  0.67208281  0.79744507    -0.03500
C1826       C  0.62585433  0.69660798  0.83203820    -0.00900
C1827       C  0.61510726  0.66057770  0.86214188    -0.23800
C1828       C  0.59537579  0.61585176  0.84121739    -0.24000
C1829       C  0.59131274  0.62500088  0.79953392    -0.01000
H1830       H  0.63355567  0.66707645  0.89224281     0.12800
H1831       H  0.59658355  0.58407473  0.85318870     0.12800
N1832       N  0.55516842  0.67674419  0.78884736    -0.03500
C1833       C  0.02824384  0.65331433  0.75347895    -0.00900
C1834       C  0.04085696  0.69048485  0.72404733    -0.23800
C1835       C  0.05981556  0.73458331  0.74593360    -0.24000
C1836       C  0.56166535  0.72388793  0.78756085    -0.01000
H1837       H  0.02389208  0.68515936  0.69338857     0.12800
H1838       H  0.05936850  0.76687812  0.73424855     0.12800
C1839       C  0.76129423  0.75377767  0.85724189     0.86500
C1840       C  0.71280663  0.71846253  0.83533973    -0.53700
C1841       C  0.68063528  0.73539878  0.82891818     0.09400
C1842       C  0.70559065  0.79164017  0.84134469     0.20400
C1843       C  0.78672050  0.79901940  0.82965855    -0.54500
C1844       C  0.75822927  0.81983775  0.81951266     0.09500
C1845       C  0.74883326  0.77344092  0.89489380    -0.54000
C1846       C  0.71891736  0.79121043  0.88834104     0.10100
H1847       H  0.70121944  0.67944281  0.83361296     0.14600
H1848       H  0.68197259  0.80802243  0.83518012     0.00300
H1849       H  0.82443283  0.81436859  0.82104671     0.14900
H1850       H  0.76077562  0.77059965  0.92618640     0.14700
C1851       C  0.74611970  0.52845042  0.85769052     0.86500
C1852       C  0.78196173  0.51642014  0.83657822    -0.53700
C1853       C  0.76672499  0.96756242  0.83034494     0.09400
C1854       C  0.71099537  0.93495169  0.84181820     0.20400
C1855       C  0.70100978  0.50791669  0.82945390    -0.54500
C1856       C  0.68149493  0.95853278  0.81949517     0.09500
C1857       C  0.72776620  0.99607819  0.89528623    -0.54000
C1858       C  0.71076693  0.94837085  0.88856198     0.10100
H1859       H  0.82034105  0.54458846  0.83540741     0.14600
H1860       H  0.69577709  0.89496940  0.83562147     0.00300
H1861       H  0.68461749  0.52969907  0.82053954     0.14900
H1862       H  0.73005636  0.01050165  0.92647344     0.14700
C1863       C  0.96855613  0.73818954  0.85680161     0.86500
C1864       C  0.98112523  0.78746223  0.83667374    -0.53700
C1865       C  0.52972357  0.81990662  0.83022989     0.09400
C1866       C  0.56133480  0.79506957  0.84111180     0.20400
C1867       C  0.98795953  0.71329249  0.82769739    -0.54500
C1868       C  0.53693739  0.74248767  0.81795090     0.09500
C1869       C  0.50167574  0.75057572  0.89424935    -0.54000
C1870       C  0.54895421  0.78063979  0.88760602     0.10100
H1871       H  0.95379645  0.79895932  0.83507890     0.14600
H1872       H  0.60097529  0.81923233  0.83533371     0.00300
H1873       H  0.96583705  0.67513170  0.81859990     0.14900
H1874       H  0.48811467  0.73811286  0.92534496     0.14700
O1875       O  0.80799351  0.58576365  0.90025249    -0.85300
O1876       O  0.89121367  0.66860514  0.87792487    -0.82400
C1877       C  0.91895581  0.71469924  0.87608598     0.98100
O1878       O  0.91252008  0.74348541  0.89998887    -0.82400
O1879       O  0.82967343  0.74394737  0.87795784    -0.85100
C1880       C  0.78412545  0.72637585  0.87603499     1.02600
O1881       O  0.75580368  0.69097748  0.89945460    -0.77800
O1882       O  0.75500166  0.60702161  0.87723167    -0.78000
C1883       C  0.77255851  0.57870890  0.87630323     1.02600
O1884       O  0.83109868  0.61629583  0.98863257    -0.85300
O1885       O  0.91302701  0.69184704  0.96500411    -0.82400
C1886       C  0.90677848  0.71420049  0.99486088     0.98100
O1887       O  0.88356768  0.73625795  0.98854323    -0.82400
O1888       O  0.80810657  0.74262361  0.96573704    -0.85000
C1889       C  0.78571509  0.71304403  0.99490108     1.02600
O1890       O  0.76381201  0.66791672  0.98763855    -0.77900
O1891       O  0.75718523  0.58593180  0.96459167    -0.78000
C1892       C  0.78610000  0.59289819  0.99475738     1.02600
Cr1893     Cr  0.85839766  0.64177582  0.93228336     1.93700
Cr1894     Cr  0.85718953  0.73792120  0.93233478     1.93200
Cr1895     Cr  0.76167761  0.64049276  0.93149596     1.39100
O1896       O  0.82573979  0.67340927  0.92950024    -1.23100
loop_ 
_geom_bond_atom_site_label_1 
_geom_bond_atom_site_label_2 
_geom_bond_distance 
_geom_bond_site_symmetry_2 
_ccdc_geom_bond_type 
C1            C2   1.523       .  S
C1            C7   1.496       .  S
C1            C5   1.520       .  S
C1           C42   1.487       .  S
C2            H9   1.085       .  S
C2            C3   1.370       .  D
C3            C4   1.579       .  S
C3           C60   1.544       .  S
C4            C8   1.554       .  S
C4            C6   1.606       .  S
C4           H10   1.109       .  S
C5           H11   1.078       .  S
C5            C6   1.382       .  D
C6           C81   1.530       .  S
C7           H12   1.083   1_554  S
C7            C8   1.324       .  D
C8          C467   1.448   1_554  S
C13          C14   1.527       .  S
C13          C17   1.523   1_455  S
C13         C967   1.493   1_455  S
C13          C45   1.496       .  S
C14          H21   1.086       .  S
C14         C963   1.372   1_455  D
C15          C16   1.571       .  S
C15         C962   1.372       .  D
C15          C77   1.544       .  S
C16          C20   1.554       .  S
C16          C18   1.607       .  S
C16          H22   1.110       .  S
C17          H23   1.075   1_655  S
C17         C966   1.384       .  D
C18         C965   1.384       .  D
C18         C149   1.536       .  S
C19         C961   1.493       .  S
C19          H24   1.083   1_554  S
C19          C20   1.330       .  D
C20         C464   1.446   1_554  S
C25          C26   1.526       .  S
C25          C29   1.520       .  S
C25         C505   1.497       .  S
C25          C39   1.490       .  S
C26          H33   1.086       .  S
C26         C501   1.370       .  D
C27          C28   1.572       .  S
C27         C500   1.370   1_545  D
C27         C156   1.540       .  S
C28          C32   1.558       .  S
C28          C30   1.611       .  S
C28          H34   1.110       .  S
C29          H35   1.077       .  S
C29         C504   1.382       .  D
C30         C503   1.382       .  D
C30          C70   1.535       .  S
C31         C499   1.497   1_545  S
C31          H36   1.082   1_554  S
C31          C32   1.330       .  D
C32         C470   1.459   1_554  S
O37         Cr55   1.972   1_554  S
O37          C45   1.273       .  A
O38         Cr55   1.988   1_554  S
O38          C39   1.257       .  A
C39          O40   1.271       .  A
O40         Cr56   1.964   1_554  S
O41         Cr56   1.980   1_554  S
O41          C42   1.256       .  A
C42          O43   1.273       .  A
O43         Cr57   1.969   1_554  S
O44         Cr57   1.991   1_554  S
O44          C45   1.259       .  A
O46         Cr55   1.975       .  S
O46          C54   1.243       .  A
O47         Cr55   1.961       .  S
O47          C48   1.263       .  A
C48         C436   1.449       .  S
C48          O49   1.242       .  A
O49         Cr56   1.973       .  S
O50         Cr56   1.953       .  S
O50          C51   1.261       .  A
C51         C424   1.455       .  S
C51          O52   1.246       .  A
O52         Cr57   1.987       .  S
O53         Cr57   1.958       .  S
O53          C54   1.261       .  A
C54         C448   1.447       .  S
Cr55         O58   1.747       .  S
Cr56         O58   1.752       .  S
Cr57         O58   1.751       .  S
N59          C63   1.378       .  A
N59          C60   1.376       .  A
N59          N66   1.438       .  S
C60          C61   1.393       .  A
C61          C62   1.383       .  A
C61          H64   1.083       .  S
C62          C63   1.382       .  A
C62          H65   1.083       .  S
C63         C101   1.527       .  S
N66          C70   1.382       .  A
N66          C67   1.377       .  A
C67         C590   1.549   1_545  S
C67         C542   1.396       .  A
C68          C69   1.385       .  A
C68         C541   1.396       .  A
C68          H71   1.083       .  S
C69         C544   1.380       .  A
C69          H72   1.083       .  S
C70         C543   1.380       .  A
N73          C77   1.376       .  A
N73          C74   1.378       .  A
N73          N80   1.443       .  S
C74        C1061   1.524       .  S
C74        C1023   1.382       .  A
C75          C76   1.381       .  A
C75        C1022   1.382       .  A
C75          H78   1.083   1_655  S
C76        C1025   1.393       .  A
C76          H79   1.083       .  S
C77        C1024   1.393       .  A
N80          C84   1.379       .  A
N80          C81   1.380       .  A
C81          C82   1.380       .  A
C82          C83   1.383       .  A
C82          H85   1.082       .  S
C83          C84   1.393       .  A
C83          H86   1.083       .  S
C84          C92   1.548       .  S
C87          C88   1.525       .  S
C87          C93   1.492       .  S
C87          C91   1.529       .  S
C87         C125   1.500       .  S
C88          H95   1.072       .  S
C88          C89   1.386       .  D
C89          C90   1.586       .  S
C89         C627   1.523       .  S
C90          C94   1.555       .  S
C90          C92   1.582       .  S
C90          H96   1.110       .  S
C91          H97   1.086       .  S
C91          C92   1.374       .  D
C93          H98   1.081       .  S
C93          C94   1.328       .  D
C94         C312   1.444       .  S
C99         C100   1.516       .  S
C99         C105   1.496       .  S
C99         C103   1.516       .  S
C99         C131   1.479       .  S
C100        H107   1.073       .  S
C100        C101   1.380       .  D
C101        C102   1.602       .  S
C102        C106   1.562       .  S
C102        C104   1.593       .  S
C102        H108   1.109       .  S
C103        H109   1.087       .  S
C103        C104   1.363       .  D
C104       C1094   1.548   1_455  S
C105        H110   1.083       .  S
C105        C106   1.329       .  D
C106        C306   1.457       .  S
C111        C112   1.519       .  S
C111        C117   1.494       .  S
C111        C115   1.520       .  S
C111        C128   1.488       .  S
C112        H119   1.072       .  S
C112        C113   1.385       .  D
C113        C114   1.592       .  S
C113       C1022   1.524   1_455  S
C114        C118   1.562       .  S
C114        C116   1.594       .  S
C114        H120   1.109       .  S
C115        H121   1.086       .  S
C115        C116   1.363       .  D
C116        C541   1.549       .  S
C117        H122   1.084       .  S
C117        C118   1.329       .  D
C118        C309   1.452       .  S
O123       Cr141   1.973       .  S
O123        C131   1.254       .  A
O124       Cr141   1.982       .  S
O124        C125   1.273       .  A
C125        O126   1.263       .  A
O126       Cr142   1.996       .  S
O127       Cr142   1.969       .  S
O127        C128   1.271       .  A
C128        O129   1.257       .  A
O129       Cr143   1.985       .  S
O130       Cr143   1.964       .  S
O130        C131   1.270       .  A
O132       Cr141   1.970       .  S
O132        C140   1.265       .  A
O133       Cr141   1.962       .  S
O133        C134   1.241       .  A
C134        C290   1.428       .  S
C134        O135   1.256       .  A
O135       Cr142   1.940       .  S
O136       Cr142   1.998       .  S
O136        C137   1.248       .  A
C137        C266   1.460       .  S
C137        O138   1.263       .  A
O138       Cr143   1.953       .  S
O139       Cr143   1.966       .  S
O139        C140   1.241       .  A
C140        C278   1.446       .  S
Cr141       O144   1.747       .  S
Cr142       O144   1.748       .  S
Cr143       O144   1.749       .  S
N145        C149   1.382       .  A
N145        C146   1.376       .  A
N145        N152   1.440       .  S
C146       C1052   1.548       .  S
C146       C1095   1.397       .  A
C147       C1094   1.397       .  A
C147       C1096   1.385       .  A
C147        H150   1.083       .  S
C148        C149   1.381       .  A
C148       C1095   1.385       .  A
C148       H1099   1.083       .  S
H151       C1096   1.083       .  S
N152        C156   1.373       .  A
N152        C153   1.376       .  A
C153        C563   1.523   1_545  S
C153        C628   1.380       .  A
C154        C627   1.380       .  A
C154        C629   1.381       .  A
C154        H157   1.083       .  S
C155        C156   1.394       .  A
C155        C628   1.381       .  A
C155        H632   1.083       .  S
H158        C629   1.083       .  S
C159        C160   1.530       .  S
C159        C165   1.494       .  S
C159        C163   1.529       .  S
C159        C203   1.495       .  S
C160        H167   1.086       .  S
C160        C161   1.376       .  D
C161        C162   1.581       .  S
C161        C239   1.540       .  S
C162        C166   1.558       .  S
C162        C164   1.588       .  S
C162        H168   1.110       .  S
C163        H169   1.076       .  S
C163        C164   1.382       .  D
C164        C249   1.527       .  S
C165        H170   1.085       .  S
C165        C166   1.323       .  D
C166        C364   1.446       .  S
C171        C172   1.512       .  S
C171        C177   1.497       .  S
C171        C175   1.524       .  S
C171        C200   1.472       .  S
C172        H179   1.087       .  S
C172        C173   1.366       .  D
C173        C174   1.575       .  S
C173        C228   1.520       .  S
C174        C178   1.561       .  S
C174        C176   1.593       .  S
C174        H180   1.110       .  S
C175        H181   1.078       .  S
C175        C176   1.382       .  D
C176        C235   1.520       .  S
C177        H182   1.086       .  S
C177        C178   1.321       .  D
C178        C367   1.452       .  S
C183        C184   1.499       .  S
C183        C189   1.510       .  S
C183        C187   1.514       .  S
C183        C197   1.473       .  S
C184        H191   1.086       .  S
C184        C185   1.371       .  D
C185        C186   1.603       .  S
C185        C256   1.541       .  S
C186        C190   1.534       .  S
C186        C188   1.607       .  S
C186        H192   1.110       .  S
C187        H193   1.081       .  S
C187        C188   1.390       .  D
C188        C218   1.552       .  S
C189        H194   1.082       .  S
C189        C190   1.320       .  D
C190        C370   1.437       .  S
O195      Cr1161   1.978       .  S
O195        C203   1.270       .  A
O196       Cr687   1.971   1_545  S
O196        C197   1.255       .  A
C197        O198   1.269       .  A
O198       Cr214   1.958       .  S
O199      Cr1162   1.960       .  S
O199        C200   1.250       .  A
C200        O201   1.276       .  A
O201       Cr689   1.973   1_545  S
O202       Cr215   1.987       .  S
O202        C203   1.256       .  A
O204      Cr1161   1.961       .  S
O204        C212   1.245       .  A
O205       Cr687   1.972   1_545  S
O205        C206   1.265       .  A
C206        C336   1.445       .  S
C206        O207   1.244       .  A
O207       Cr214   1.973       .  S
O208      Cr1162   1.948       .  S
O208        C209   1.258       .  A
C209        C348   1.434       .  S
C209        O210   1.241   1_545  A
O210       Cr689   1.967       .  S
O211       Cr215   1.961       .  S
O211        C212   1.265       .  A
C212        C324   1.440       .  S
Cr213      O1143   1.978   1_455  S
Cr213       O670   1.971       .  S
Cr213      O1152   1.961   1_455  S
Cr213       O679   1.972       .  S
Cr213      O1638   1.740   1_455  S
Cr214      O1147   1.960   1_455  S
Cr214      O1156   1.948   1_455  S
Cr214      O1164   1.751   1_455  S
Cr215       O675   1.974       .  S
Cr215       O684   1.967       .  S
Cr215       O690   1.746       .  S
O216      Cr1635   1.740   1_545  S
O216      Cr1162   1.751       .  S
O216       Cr689   1.746   1_545  S
N217        C218   1.399       .  A
N217        C695   1.381   1_545  A
N217        N224   1.469       .  S
C218        C219   1.395   1_545  A
C219        C694   1.367       .  A
C219        H222   1.082   1_565  S
C220        C221   1.379       .  A
C220        C693   1.367       .  A
C220        H223   1.076       .  S
C221        C264   1.505       .  S
C221        N691   1.381       .  A
N224        C228   1.379       .  A
N224        C699   1.401   1_545  A
C225        C285   1.532       .  S
C225        N698   1.401       .  A
C225        C226   1.383       .  A
C226        C701   1.373       .  A
C226        H229   1.083       .  S
C227        C228   1.395   1_565  A
C227        C700   1.373       .  A
C227        H230   1.083       .  S
N231        C235   1.373       .  A
N231       C1180   1.375       .  A
N231        N238   1.438       .  S
C232        C276   1.548       .  S
C232       N1179   1.375   1_455  A
C232       C1181   1.395   1_455  A
C233        C234   1.382       .  A
C233       C1180   1.395       .  A
C233       H1184   1.083       .  S
C234        C235   1.381       .  A
C234        H237   1.083       .  S
H236       C1181   1.083       .  S
N238        C239   1.377       .  A
N238       C1190   1.372       .  A
C239        C240   1.389       .  A
C240       C1189   1.379       .  A
C240        H243   1.083       .  S
C241        C242   1.379       .  A
C241       C1188   1.379       .  A
C241        H244   1.075       .  S
C242        C261   1.528       .  S
C242       N1186   1.372   1_455  A
N245        C249   1.378       .  A
N245        C246   1.369       .  A
N245        N252   1.441       .  S
C246        C288   1.536       .  S
C246        C247   1.393       .  A
C247        C248   1.381       .  A
C247        H250   1.084       .  S
C248        C249   1.382       .  A
C248        H251   1.083       .  S
N252        C256   1.371       .  A
N252        C253   1.384       .  A
C253        C273   1.537       .  S
C253        C254   1.381       .  A
C254        C255   1.385       .  A
C254        H257   1.083       .  S
C255        C256   1.396       .  A
C255        H258   1.083       .  S
C259        C260   1.537       .  S
C259        C265   1.483       .  S
C259        C263   1.536       .  S
C259        C300   1.491       .  S
C260       H1215   1.081   1_455  S
C260        C261   1.377       .  D
C261        C262   1.580       .  S
C262        C266   1.575       .  S
C262        C264   1.562       .  S
C262        H268   1.109       .  S
C263        H743   1.077       .  S
C263        C264   1.369       .  D
C265        H270   1.082       .  S
C265        C266   1.328       .  D
H267       C1208   1.081       .  S
H269        C737   1.077       .  S
C271        C272   1.520       .  S
C271        C277   1.497       .  S
C271        C275   1.534       .  S
C271        C297   1.490       .  S
C272        H279   1.079       .  S
C272        C273   1.377       .  D
C273        C274   1.606       .  S
C274        C278   1.552       .  S
C274        C276   1.582       .  S
C274        H280   1.109       .  S
C275       H1229   1.085   1_455  S
C275        C276   1.373       .  D
C277        H282   1.082       .  S
C277        C278   1.326       .  D
H281       C1223   1.085       .  S
C283        C284   1.530       .  S
C283        C289   1.493       .  S
C283        C287   1.531       .  S
C283        C303   1.500       .  S
C284        H765   1.078       .  S
C284        C285   1.380       .  D
C285        C286   1.595       .  S
C286        C290   1.540       .  S
C286        C288   1.569       .  S
C286        H292   1.110       .  S
C287        H293   1.085       .  S
C287        C288   1.376       .  D
C289        H294   1.079       .  S
C289        C290   1.328       .  D
H291        C758   1.077   1_545  S
O295       Cr787   1.989       .  S
O295        C303   1.267       .  A
O296      Cr1261   1.968   1_455  S
O296        C297   1.257       .  A
C297        O298   1.268       .  A
O298       Cr314   1.990       .  S
O299       Cr788   1.975       .  S
O299        C300   1.259       .  A
C300       O1249   1.269   1_455  A
O301       Cr315   1.992       .  S
O301       C1248   1.269       .  A
O302       Cr315   1.987       .  S
O302        C303   1.264       .  A
O304       Cr787   1.978       .  S
O304        C312   1.249       .  A
O305      Cr1261   1.960   1_455  S
O305        C306   1.263       .  A
C306        O307   1.249       .  A
O307       Cr314   1.991       .  S
O308       Cr788   1.942       .  S
O308        C309   1.258       .  A
C309        O310   1.252   1_455  A
O310      Cr1263   1.997       .  S
O311       Cr315   1.949       .  S
O311        C312   1.261       .  A
Cr313       O769   1.989       .  S
Cr313      O1244   1.968       .  S
Cr313       O778   1.978       .  S
Cr313      O1253   1.960       .  S
Cr313       O316   1.742       .  S
Cr314       O773   1.975   1_545  S
Cr314       O782   1.942   1_545  S
Cr314      O1264   1.749   1_455  S
Cr315      O1258   1.997       .  S
Cr315       O790   1.745       .  S
O316      Cr1262   1.749       .  S
O316       Cr789   1.745   1_545  S
C317        C318   1.529       .  S
C317        C323   1.494       .  S
C317        C321   1.524       .  S
C317        C355   1.488       .  S
C318        H325   1.078       .  S
C318        C319   1.384       .  D
C319        C320   1.598       .  S
C319       C1348   1.531       .  S
C320        C324   1.555       .  S
C320        C322   1.584       .  S
C320        H326   1.110       .  S
C321        H327   1.086       .  S
C321        C322   1.372       .  D
C322        C386   1.545       .  S
C323        H328   1.085       .  S
C323        C324   1.320       .  D
C329        C330   1.529       .  S
C329        C335   1.498       .  S
C329        C333   1.525       .  S
C329        C361   1.494       .  S
C330        H337   1.077       .  S
C330        C331   1.384       .  D
C331        C332   1.598       .  S
C331        C407   1.536       .  S
C332        C336   1.553       .  S
C332        C334   1.585       .  S
C332        H338   1.110       .  S
C333        H339   1.087       .  S
C333        C334   1.371       .  D
C334        C867   1.547   1_545  S
C335        H340   1.084       .  S
C335        C336   1.328       .  D
C341        C342   1.529       .  S
C341        C347   1.492       .  S
C341        C345   1.524       .  S
C341        C358   1.486       .  S
C342        H349   1.074       .  S
C342        C343   1.386       .  D
C343        C344   1.595       .  S
C343        C376   1.534   1_545  S
C344        C348   1.554       .  S
C344        C346   1.583       .  S
C344        H350   1.110       .  S
C345        H351   1.087       .  S
C345        C346   1.369       .  D
C346        C411   1.545       .  S
C347        H352   1.088       .  S
C347        C348   1.323       .  D
O353       Cr371   1.984       .  S
O353        C361   1.257       .  A
O354       Cr371   1.976       .  S
O354        C355   1.274       .  A
C355        O356   1.255       .  A
O356       Cr372   1.981       .  S
O357       Cr372   1.967       .  S
O357        C358   1.272       .  A
C358        O359   1.255       .  A
O359       Cr373   1.983       .  S
O360       Cr373   1.981       .  S
O360        C361   1.274       .  A
O362       Cr371   1.963       .  S
O362        C370   1.261       .  A
O363       Cr371   1.979       .  S
O363        C364   1.245       .  A
C364        O365   1.261       .  A
O365       Cr372   1.957       .  S
O366       Cr372   1.972       .  S
O366        C367   1.243       .  A
C367        O368   1.267       .  A
O368       Cr373   1.978       .  S
O369       Cr373   1.964       .  S
O369        C370   1.243       .  A
Cr371       O374   1.749       .  S
Cr372       O374   1.753       .  S
Cr373       O374   1.746       .  S
N375        C379   1.372       .  A
N375        C850   1.383       .  A
N375        N382   1.441       .  S
C376        N849   1.383       .  A
C376        C377   1.381   1_565  A
C377        C378   1.382   1_545  A
C377        H380   1.083       .  S
C378        C853   1.394       .  A
C378        H381   1.083       .  S
C379        C431   1.540       .  S
C379        C852   1.394       .  A
N382        C386   1.376       .  A
N382        C383   1.384       .  A
C383        C422   1.535       .  S
C383        C384   1.381       .  A
C384        C385   1.383       .  A
C384        H387   1.083       .  S
C385        C386   1.394       .  A
C385        H388   1.083       .  S
N389        C393   1.374       .  A
N389        C390   1.384       .  A
N389        N396   1.442       .  S
C390        C434   1.531       .  S
C390        C865   1.381       .  A
C391        C392   1.382       .  A
C391        C864   1.381       .  A
C391        H394   1.083       .  S
C392        C867   1.395       .  A
C392        H395   1.083       .  S
C393        C808   1.547       .  S
C393        C866   1.395       .  A
N396        C400   1.382       .  A
N396        C397   1.373       .  A
C397        C443   1.541       .  S
C397       C1346   1.393       .  A
C398        C399   1.381       .  A
C398       C1345   1.393       .  A
C398        H401   1.083       .  S
C399       C1348   1.381       .  A
C399        H402   1.083       .  S
C400       C1267   1.531   1_455  S
C400       C1347   1.381   1_455  A
N403        C407   1.382       .  A
N403        C404   1.375       .  A
N403        N410   1.445       .  S
C404        C419   1.543       .  S
C404        C405   1.393       .  A
C405        C406   1.382       .  A
C405        H408   1.084       .  S
C406        C407   1.382       .  A
C406        H409   1.082       .  S
N410        C414   1.383       .  A
N410       C1359   1.375       .  A
C411       N1358   1.375       .  A
C411        C412   1.395       .  A
C412        C413   1.383       .  A
C412        H415   1.083       .  S
C413       C1362   1.381       .  A
C413        H416   1.083       .  S
C414        C446   1.537       .  S
C414       C1361   1.381       .  A
C417        C418   1.528       .  S
C417        C423   1.496       .  S
C417        C421   1.521       .  S
C417        C458   1.488       .  S
C418        H425   1.086       .  S
C418        C419   1.371       .  D
C419        C420   1.575       .  S
C420        C424   1.558       .  S
C420        C422   1.611       .  S
C420        H426   1.109       .  S
C421        H427   1.077       .  S
C421        C422   1.382       .  D
C423        H428   1.085       .  S
C423        C424   1.326       .  D
C429        C430   1.523       .  S
C429        C433   1.518       .  S
C429        C909   1.497   1_545  S
C429        C461   1.482       .  S
C430        H437   1.086       .  S
C430        C905   1.366   1_545  D
C431        C432   1.579       .  S
C431        C904   1.366       .  D
C432        C436   1.555       .  S
C432        C434   1.607       .  S
C432        H438   1.109       .  S
C433        H439   1.076       .  S
C433        C908   1.382   1_545  D
C434        C907   1.382       .  D
C435        C903   1.497       .  S
C435        H440   1.082       .  S
C435        C436   1.325       .  D
C441        C442   1.531       .  S
C441        C445   1.528       .  S
C441       C1395   1.496       .  S
C441        C455   1.499       .  S
C442        H449   1.087       .  S
C442       C1391   1.371       .  D
C443        C444   1.574       .  S
C443       C1390   1.371   1_455  D
C444        C448   1.553       .  S
C444        C446   1.601       .  S
C444        H450   1.110       .  S
C445        H451   1.076       .  S
C445       C1394   1.387       .  D
C446       C1393   1.387   1_455  D
C447       C1389   1.496   1_455  S
C447        H452   1.082   1_455  S
C447        C448   1.328       .  D
O453       Cr471   1.955       .  S
O453        C461   1.271       .  A
O454       Cr471   1.997       .  S
O454        C455   1.261       .  A
C455        O456   1.273       .  A
O456       Cr472   1.973       .  S
O457       Cr472   1.984       .  S
O457        C458   1.256       .  A
C458        O459   1.272       .  A
O459       Cr473   1.965       .  S
O460       Cr473   1.981       .  S
O460        C461   1.256       .  A
O462       Cr471   1.997       .  S
O462        C470   1.249       .  A
O463       Cr471   1.943       .  S
O463        C464   1.258       .  A
C464        O465   1.245       .  A
O465       Cr472   1.983       .  S
O466       Cr472   1.957       .  S
O466        C467   1.262       .  A
C467        O468   1.243       .  A
O468       Cr473   1.976       .  S
O469       Cr473   1.953       .  S
O469        C470   1.260       .  A
Cr471       O474   1.748       .  S
Cr472       O474   1.750       .  S
Cr473       O474   1.753       .  S
C475        C476   1.523       .  S
C475        C481   1.496       .  S
C475        C479   1.520       .  S
C475        C516   1.487       .  S
C476        H483   1.085       .  S
C476        C477   1.370       .  D
C477        C478   1.579       .  S
C477        C534   1.544       .  S
C478        C482   1.554       .  S
C478        C480   1.606       .  S
C478        H484   1.109       .  S
C479        H485   1.078       .  S
C479        C480   1.382       .  D
C480        C555   1.530       .  S
C481        H486   1.083   1_554  S
C481        C482   1.324       .  D
C482        C941   1.448   1_554  S
C487        C488   1.527       .  S
C487       C1441   1.493   1_455  S
C487        C491   1.523   1_455  S
C487        C519   1.496       .  S
C488        H495   1.086       .  S
C488       C1437   1.372   1_455  D
C489        C490   1.571       .  S
C489       C1436   1.372       .  D
C489        C551   1.544       .  S
C490        C494   1.554       .  S
C490        C492   1.607       .  S
C490        H496   1.110       .  S
C491        H497   1.075   1_655  S
C491       C1440   1.384       .  D
C492       C1439   1.384       .  D
C492        C623   1.536       .  S
C493       C1435   1.493       .  S
C493        H498   1.083   1_554  S
C493        C494   1.330       .  D
C494        C938   1.446   1_554  S
C499        C500   1.526       .  S
C499        C503   1.520   1_565  S
C499        C513   1.490       .  S
C500        H507   1.086       .  S
C501        C502   1.572       .  S
C501        C630   1.540       .  S
C502        C506   1.558       .  S
C502        C504   1.611       .  S
C502        H508   1.110       .  S
C503        H509   1.077   1_545  S
C504        C544   1.535       .  S
C505        H510   1.082   1_554  S
C505        C506   1.330       .  D
C506        C944   1.459   1_554  S
O511       Cr529   1.972   1_554  S
O511        C519   1.273       .  A
O512       Cr529   1.988   1_554  S
O512        C513   1.257       .  A
C513        O514   1.271       .  A
O514       Cr530   1.964   1_554  S
O515       Cr530   1.980   1_554  S
O515        C516   1.256       .  A
C516        O517   1.274       .  A
O517       Cr531   1.969   1_554  S
O518       Cr531   1.991   1_554  S
O518        C519   1.259       .  A
O520       Cr529   1.975       .  S
O520        C528   1.243       .  A
O521       Cr529   1.961       .  S
O521        C522   1.263       .  A
C522        C910   1.449       .  S
C522        O523   1.242       .  A
O523       Cr530   1.973       .  S
O524       Cr530   1.952       .  S
O524        C525   1.261       .  A
C525        C898   1.455       .  S
C525        O526   1.246       .  A
O526       Cr531   1.987       .  S
O527       Cr531   1.958       .  S
O527        C528   1.261       .  A
C528        C922   1.447       .  S
Cr529       O532   1.747       .  S
Cr530       O532   1.752       .  S
Cr531       O532   1.751       .  S
N533        C537   1.378       .  A
N533        C534   1.376       .  A
N533        N540   1.438       .  S
C534        C535   1.393       .  A
C535        C536   1.383       .  A
C535        H538   1.083       .  S
C536        C537   1.382       .  A
C536        H539   1.083       .  S
C537        C575   1.527       .  S
N540        C544   1.382       .  A
N540        C541   1.377       .  A
C542        C543   1.385       .  A
C542        H545   1.083       .  S
C543        H546   1.083       .  S
N547        C551   1.376       .  A
N547        C548   1.378       .  A
N547        N554   1.443       .  S
C548       C1535   1.524       .  S
C548       C1497   1.382       .  A
C549       C1496   1.382       .  A
C549        C550   1.381       .  A
C549        H552   1.083   1_655  S
C550       C1499   1.393       .  A
C550        H553   1.083       .  S
C551       C1498   1.393       .  A
N554        C558   1.379       .  A
N554        C555   1.380       .  A
C555        C556   1.380       .  A
C556        C557   1.383       .  A
C556        H559   1.082       .  S
C557        C558   1.393       .  A
C557        H560   1.083       .  S
C558        C566   1.548       .  S
C561        C562   1.525       .  S
C561        C567   1.492       .  S
C561        C565   1.529       .  S
C561        C599   1.500       .  S
C562        H569   1.072       .  S
C562        C563   1.386       .  D
C563        C564   1.586       .  S
C564        C568   1.555       .  S
C564        C566   1.582       .  S
C564        H570   1.110       .  S
C565        H571   1.086       .  S
C565        C566   1.373       .  D
C567        H572   1.081       .  S
C567        C568   1.328       .  D
C568        C786   1.443       .  S
C573        C574   1.516       .  S
C573        C579   1.496       .  S
C573        C577   1.516       .  S
C573        C605   1.479       .  S
C574        H581   1.073       .  S
C574        C575   1.380       .  D
C575        C576   1.602       .  S
C576        C580   1.562       .  S
C576        C578   1.593       .  S
C576        H582   1.109       .  S
C577        H583   1.087       .  S
C577        C578   1.363       .  D
C578       C1568   1.548   1_455  S
C579        H584   1.083       .  S
C579        C580   1.329       .  D
C580        C780   1.457       .  S
C585        C586   1.519       .  S
C585        C591   1.494       .  S
C585        C589   1.520       .  S
C585        C602   1.488       .  S
C586        H593   1.072       .  S
C586        C587   1.385       .  D
C587        C588   1.592       .  S
C587       C1496   1.524   1_455  S
C588        C592   1.562       .  S
C588        C590   1.594       .  S
C588        H594   1.109       .  S
C589        H595   1.086       .  S
C589        C590   1.363       .  D
C591        H596   1.084       .  S
C591        C592   1.329       .  D
C592        C783   1.452       .  S
O597       Cr615   1.973       .  S
O597        C605   1.254       .  A
O598       Cr615   1.981       .  S
O598        C599   1.273       .  A
C599        O600   1.263       .  A
O600       Cr616   1.996       .  S
O601       Cr616   1.969       .  S
O601        C602   1.272       .  A
C602        O603   1.257       .  A
O603       Cr617   1.985       .  S
O604       Cr617   1.964       .  S
O604        C605   1.270       .  A
O606       Cr615   1.970       .  S
O606        C614   1.265       .  A
O607       Cr615   1.962       .  S
O607        C608   1.241       .  A
C608        C764   1.427       .  S
C608        O609   1.256       .  A
O609       Cr616   1.940       .  S
O610       Cr616   1.998       .  S
O610        C611   1.248       .  A
C611        C740   1.460       .  S
C611        O612   1.263       .  A
O612       Cr617   1.953       .  S
O613       Cr617   1.966       .  S
O613        C614   1.241       .  A
C614        C752   1.446       .  S
Cr615       O618   1.747       .  S
Cr616       O618   1.749       .  S
Cr617       O618   1.749       .  S
N619        C623   1.382       .  A
N619        C620   1.376       .  A
N619        N626   1.440       .  S
C620       C1526   1.548       .  S
C620       C1569   1.397       .  A
C621       C1568   1.397       .  A
C621       C1570   1.385       .  A
C621        H624   1.083       .  S
C622       C1569   1.385       .  A
C622        C623   1.381       .  A
C622       H1573   1.083       .  S
H625       C1570   1.083       .  S
N626        C630   1.373       .  A
N626        C627   1.376       .  A
C628        H631   1.083   1_545  S
C629        C630   1.394       .  A
C633        C634   1.530       .  S
C633        C639   1.494       .  S
C633        C637   1.529       .  S
C633        C677   1.495       .  S
C634        H641   1.086       .  S
C634        C635   1.376       .  D
C635        C636   1.581       .  S
C635        C713   1.540       .  S
C636        C640   1.558       .  S
C636        C638   1.588       .  S
C636        H642   1.110       .  S
C637        H643   1.076       .  S
C637        C638   1.382       .  D
C638        C723   1.527       .  S
C639        H644   1.085       .  S
C639        C640   1.323       .  D
C640        C838   1.446       .  S
C645        C646   1.512       .  S
C645        C651   1.497       .  S
C645        C649   1.524       .  S
C645        C674   1.472       .  S
C646        H653   1.087       .  S
C646        C647   1.367       .  D
C647        C648   1.575       .  S
C647        C702   1.520       .  S
C648        C652   1.561       .  S
C648        C650   1.593       .  S
C648        H654   1.110       .  S
C649        H655   1.079       .  S
C649        C650   1.382       .  D
C650        C709   1.520       .  S
C651        H656   1.086       .  S
C651        C652   1.321       .  D
C652        C841   1.452       .  S
C657        C658   1.500       .  S
C657        C663   1.510       .  S
C657        C661   1.514       .  S
C657        C671   1.473       .  S
C658        H665   1.086       .  S
C658        C659   1.371       .  D
C659        C660   1.603       .  S
C659        C730   1.541       .  S
C660        C664   1.534       .  S
C660        C662   1.606       .  S
C660        H666   1.110       .  S
C661        H667   1.081       .  S
C661        C662   1.390       .  D
C662        C692   1.552       .  S
C663        H668   1.082       .  S
C663        C664   1.320       .  D
C664        C844   1.437       .  S
O669      Cr1635   1.978       .  S
O669        C677   1.270       .  A
O670        C671   1.255       .  A
C671        O672   1.269       .  A
O672       Cr688   1.958       .  S
O673      Cr1636   1.960       .  S
O673        C674   1.250       .  A
C674        O675   1.276       .  A
O676       Cr689   1.987       .  S
O676        C677   1.256       .  A
O678      Cr1635   1.961       .  S
O678        C686   1.244       .  A
O679        C680   1.265       .  A
C680        C810   1.445       .  S
C680        O681   1.244       .  A
O681       Cr688   1.973       .  S
O682      Cr1636   1.948       .  S
O682        C683   1.258       .  A
C683        C822   1.434       .  S
C683        O684   1.241       .  A
O685       Cr689   1.961       .  S
O685        C686   1.265       .  A
C686        C798   1.440       .  S
Cr687      O1617   1.978   1_455  S
Cr687      O1626   1.961   1_455  S
Cr687      O1164   1.740   1_465  S
Cr688      O1621   1.960   1_455  S
Cr688      O1630   1.948   1_455  S
Cr688      O1638   1.751   1_455  S
O690      Cr1161   1.740       .  S
O690      Cr1636   1.751       .  S
N691        C692   1.399       .  A
N691        N698   1.469       .  S
C692        C693   1.395       .  A
C693        H696   1.083       .  S
C694        C695   1.379       .  A
C694        H697   1.075       .  S
C695        C738   1.505       .  S
N698        C702   1.379       .  A
C699        C759   1.532       .  S
C699        C700   1.383       .  A
C700        H703   1.083       .  S
C701        C702   1.395       .  A
C701        H704   1.083       .  S
N705        C709   1.373       .  A
N705       C1654   1.375       .  A
N705        N712   1.438       .  S
C706        C750   1.548       .  S
C706       N1653   1.375   1_455  A
C706       C1655   1.395   1_455  A
C707       C1654   1.395       .  A
C707        C708   1.382       .  A
C707       H1658   1.083       .  S
C708        C709   1.381       .  A
C708        H711   1.083       .  S
H710       C1655   1.083       .  S
N712       C1664   1.372       .  A
N712        C713   1.377       .  A
C713        C714   1.389       .  A
C714       C1663   1.380       .  A
C714        H717   1.083       .  S
C715       C1662   1.380       .  A
C715        C716   1.379       .  A
C715        H718   1.075       .  S
C716        C735   1.528       .  S
C716       N1660   1.372   1_455  A
N719        C723   1.378       .  A
N719        C720   1.369       .  A
N719        N726   1.441       .  S
C720        C762   1.536       .  S
C720        C721   1.393       .  A
C721        C722   1.381       .  A
C721        H724   1.083       .  S
C722        C723   1.382       .  A
C722        H725   1.083       .  S
N726        C730   1.371       .  A
N726        C727   1.384       .  A
C727        C747   1.537       .  S
C727        C728   1.381       .  A
C728        C729   1.385       .  A
C728        H731   1.083       .  S
C729        C730   1.396       .  A
C729        H732   1.083       .  S
C733        C734   1.537       .  S
C733        C739   1.483       .  S
C733        C737   1.536       .  S
C733        C774   1.491       .  S
C734       H1689   1.081   1_455  S
C734        C735   1.377       .  D
C735        C736   1.580       .  S
C736        C740   1.575       .  S
C736        C738   1.561       .  S
C736        H742   1.109       .  S
C737        C738   1.369       .  D
C739        H744   1.082       .  S
C739        C740   1.328       .  D
H741       C1682   1.081       .  S
C745        C746   1.520       .  S
C745        C751   1.497       .  S
C745        C749   1.534       .  S
C745        C771   1.490       .  S
C746        H753   1.078       .  S
C746        C747   1.377       .  D
C747        C748   1.606       .  S
C748        C752   1.552       .  S
C748        C750   1.582       .  S
C748        H754   1.109       .  S
C749       H1703   1.085   1_455  S
C749        C750   1.373       .  D
C751        H756   1.081       .  S
C751        C752   1.326       .  D
H755       C1697   1.085       .  S
C757        C758   1.531       .  S
C757        C763   1.493       .  S
C757        C761   1.531       .  S
C757        C777   1.500       .  S
C758        C759   1.380       .  D
C759        C760   1.595       .  S
C760        C764   1.540       .  S
C760        C762   1.569       .  S
C760        H766   1.110       .  S
C761        H767   1.085       .  S
C761        C762   1.376       .  D
C763        H768   1.079       .  S
C763        C764   1.328       .  D
O769        C777   1.267   1_545  A
O770      Cr1735   1.968   1_455  S
O770        C771   1.257       .  A
C771        O772   1.268       .  A
O772       Cr788   1.990       .  S
O773        C774   1.259       .  A
C774       O1723   1.269   1_455  A
O775       Cr789   1.992       .  S
O775       C1722   1.269       .  A
O776       Cr789   1.986       .  S
O776        C777   1.264       .  A
O778        C786   1.249   1_545  A
O779      Cr1735   1.960   1_455  S
O779        C780   1.263       .  A
C780        O781   1.249       .  A
O781       Cr788   1.991       .  S
O782        C783   1.258       .  A
C783        O784   1.252   1_455  A
O784      Cr1737   1.997       .  S
O785       Cr789   1.949       .  S
O785        C786   1.261       .  A
Cr787      O1718   1.968       .  S
Cr787      O1727   1.960       .  S
Cr787       O790   1.742       .  S
Cr788      O1738   1.749   1_455  S
Cr789      O1732   1.997       .  S
O790      Cr1736   1.749       .  S
C791        C792   1.529       .  S
C791        C797   1.494       .  S
C791        C795   1.524       .  S
C791        C829   1.488       .  S
C792        H799   1.078       .  S
C792        C793   1.384       .  D
C793        C794   1.598       .  S
C793       C1822   1.531       .  S
C794        C798   1.555       .  S
C794        C796   1.584       .  S
C794        H800   1.110       .  S
C795        H801   1.086       .  S
C795        C796   1.372       .  D
C796        C860   1.545       .  S
C797        H802   1.085       .  S
C797        C798   1.320       .  D
C803        C804   1.529       .  S
C803        C809   1.498       .  S
C803        C807   1.525       .  S
C803        C835   1.494       .  S
C804        H811   1.077       .  S
C804        C805   1.384       .  D
C805        C806   1.598       .  S
C805        C881   1.536       .  S
C806        C810   1.553       .  S
C806        C808   1.585       .  S
C806        H812   1.110       .  S
C807        H813   1.087       .  S
C807        C808   1.371       .  D
C809        H814   1.084       .  S
C809        C810   1.328       .  D
C815        C816   1.529       .  S
C815        C821   1.492       .  S
C815        C819   1.524       .  S
C815        C832   1.486       .  S
C816        H823   1.074       .  S
C816        C817   1.386       .  D
C817        C818   1.595       .  S
C817        C850   1.534       .  S
C818        C822   1.554       .  S
C818        C820   1.583       .  S
C818        H824   1.110       .  S
C819        H825   1.087       .  S
C819        C820   1.369       .  D
C820        C885   1.545       .  S
C821        H826   1.088       .  S
C821        C822   1.323       .  D
O827       Cr845   1.984       .  S
O827        C835   1.257       .  A
O828       Cr845   1.976       .  S
O828        C829   1.274       .  A
C829        O830   1.255       .  A
O830       Cr846   1.981       .  S
O831       Cr846   1.967       .  S
O831        C832   1.272       .  A
C832        O833   1.255       .  A
O833       Cr847   1.983       .  S
O834       Cr847   1.981       .  S
O834        C835   1.274       .  A
O836       Cr845   1.963       .  S
O836        C844   1.261       .  A
O837       Cr845   1.979       .  S
O837        C838   1.245       .  A
C838        O839   1.261       .  A
O839       Cr846   1.957       .  S
O840       Cr846   1.972       .  S
O840        C841   1.243       .  A
C841        O842   1.267       .  A
O842       Cr847   1.978       .  S
O843       Cr847   1.964       .  S
O843        C844   1.243       .  A
Cr845       O848   1.749       .  S
Cr846       O848   1.753       .  S
Cr847       O848   1.746       .  S
N849        C853   1.372       .  A
N849        N856   1.441       .  S
C850        C851   1.381       .  A
C851        C852   1.382       .  A
C851        H854   1.083       .  S
C852        H855   1.083       .  S
C853        C905   1.540       .  S
N856        C860   1.376       .  A
N856        C857   1.384       .  A
C857        C896   1.535       .  S
C857        C858   1.381       .  A
C858        C859   1.383       .  A
C858        H861   1.083       .  S
C859        C860   1.394       .  A
C859        H862   1.083       .  S
N863        C867   1.374       .  A
N863        C864   1.384       .  A
N863        N870   1.442       .  S
C864        C908   1.531       .  S
C865        C866   1.382       .  A
C865        H868   1.083       .  S
C866        H869   1.083       .  S
N870        C874   1.382       .  A
N870        C871   1.373       .  A
C871        C917   1.541       .  S
C871       C1820   1.393       .  A
C872       C1819   1.393       .  A
C872        C873   1.381       .  A
C872        H875   1.083       .  S
C873       C1822   1.381       .  A
C873        H876   1.083       .  S
C874       C1741   1.531   1_455  S
C874       C1821   1.381   1_455  A
N877        C881   1.382       .  A
N877        C878   1.375       .  A
N877        N884   1.445       .  S
C878        C893   1.543       .  S
C878        C879   1.393       .  A
C879        C880   1.382       .  A
C879        H882   1.084       .  S
C880        C881   1.382       .  A
C880        H883   1.082       .  S
N884        C888   1.383       .  A
N884       C1833   1.375       .  A
C885       N1832   1.375       .  A
C885        C886   1.395       .  A
C886        C887   1.383       .  A
C886        H889   1.083       .  S
C887       C1836   1.381       .  A
C887        H890   1.083       .  S
C888        C920   1.537       .  S
C888       C1835   1.381       .  A
C891        C892   1.528       .  S
C891        C897   1.496       .  S
C891        C895   1.521       .  S
C891        C932   1.488       .  S
C892        H899   1.086       .  S
C892        C893   1.371       .  D
C893        C894   1.574       .  S
C894        C898   1.558       .  S
C894        C896   1.611       .  S
C894        H900   1.109       .  S
C895        H901   1.077       .  S
C895        C896   1.382       .  D
C897        H902   1.084       .  S
C897        C898   1.326       .  D
C903        C904   1.523       .  S
C903        C907   1.518       .  S
C903        C935   1.482       .  S
C904        H911   1.086       .  S
C905        C906   1.579       .  S
C906        C910   1.555       .  S
C906        C908   1.607       .  S
C906        H912   1.109       .  S
C907        H913   1.076       .  S
C909        H914   1.082   1_565  S
C909        C910   1.325       .  D
C915        C916   1.531       .  S
C915       C1869   1.496       .  S
C915        C919   1.528       .  S
C915        C929   1.499       .  S
C916        H923   1.087       .  S
C916       C1865   1.371       .  D
C917        C918   1.574       .  S
C917       C1864   1.371   1_455  D
C918        C922   1.553       .  S
C918        C920   1.602       .  S
C918        H924   1.110       .  S
C919        H925   1.076       .  S
C919       C1868   1.387       .  D
C920       C1867   1.387   1_455  D
C921       C1863   1.496   1_455  S
C921        H926   1.082   1_455  S
C921        C922   1.328       .  D
O927       Cr945   1.955       .  S
O927        C935   1.271       .  A
O928       Cr945   1.997       .  S
O928        C929   1.261       .  A
C929        O930   1.273       .  A
O930       Cr946   1.973       .  S
O931       Cr946   1.984       .  S
O931        C932   1.256       .  A
C932        O933   1.272       .  A
O933       Cr947   1.965       .  S
O934       Cr947   1.981       .  S
O934        C935   1.256       .  A
O936       Cr945   1.997       .  S
O936        C944   1.249       .  A
O937       Cr945   1.943       .  S
O937        C938   1.258       .  A
C938        O939   1.245       .  A
O939       Cr946   1.983       .  S
O940       Cr946   1.957       .  S
O940        C941   1.262       .  A
C941        O942   1.243       .  A
O942       Cr947   1.976       .  S
O943       Cr947   1.953       .  S
O943        C944   1.260       .  A
Cr945       O948   1.748       .  S
Cr946       O948   1.750       .  S
Cr947       O948   1.753       .  S
C949        C950   1.523       .  S
C949        C955   1.496       .  S
C949        C953   1.520       .  S
C949        C990   1.487       .  S
C950        H957   1.085       .  S
C950        C951   1.370       .  D
C951        C952   1.579       .  S
C951       C1008   1.544       .  S
C952        C956   1.554       .  S
C952        C954   1.606       .  S
C952        H958   1.109       .  S
C953        H959   1.078       .  S
C953        C954   1.382       .  D
C954       C1029   1.530       .  S
C955        H960   1.083   1_554  S
C955        C956   1.324       .  D
C956       C1415   1.448   1_554  S
C961        C962   1.527       .  S
C961        C965   1.523       .  S
C961        C993   1.496       .  S
C962        H969   1.086       .  S
C963        C964   1.571       .  S
C963       C1025   1.544       .  S
C964        C968   1.554       .  S
C964        C966   1.607       .  S
C964        H970   1.110       .  S
C965        H971   1.075       .  S
C966       C1097   1.536       .  S
C967        H972   1.083   1_554  S
C967        C968   1.330       .  D
C968       C1412   1.446   1_554  S
C973        C974   1.526       .  S
C973       C1453   1.497       .  S
C973        C977   1.520       .  S
C973        C987   1.490       .  S
C974        H981   1.086       .  S
C974       C1449   1.370       .  D
C975        C976   1.572       .  S
C975       C1448   1.370   1_545  D
C975       C1104   1.540       .  S
C976        C980   1.558       .  S
C976        C978   1.611       .  S
C976        H982   1.110       .  S
C977        H983   1.077       .  S
C977       C1452   1.382       .  D
C978       C1451   1.382       .  D
C978       C1018   1.535       .  S
C979       C1447   1.497   1_545  S
C979        H984   1.082   1_554  S
C979        C980   1.330       .  D
C980       C1418   1.459   1_554  S
O985      Cr1003   1.972   1_554  S
O985        C993   1.273       .  A
O986      Cr1003   1.988   1_554  S
O986        C987   1.257       .  A
C987        O988   1.271       .  A
O988      Cr1004   1.964   1_554  S
O989      Cr1004   1.980   1_554  S
O989        C990   1.256       .  A
C990        O991   1.273       .  A
O991      Cr1005   1.969   1_554  S
O992      Cr1005   1.991   1_554  S
O992        C993   1.259       .  A
O994      Cr1003   1.975       .  S
O994       C1002   1.243       .  A
O995      Cr1003   1.961       .  S
O995        C996   1.263       .  A
C996       C1384   1.449       .  S
C996        O997   1.242       .  A
O997      Cr1004   1.973       .  S
O998      Cr1004   1.953       .  S
O998        C999   1.261       .  A
C999       C1372   1.455       .  S
C999       O1000   1.246       .  A
O1000     Cr1005   1.987       .  S
O1001     Cr1005   1.958       .  S
O1001      C1002   1.261       .  A
C1002      C1396   1.447       .  S
Cr1003     O1006   1.747       .  S
Cr1004     O1006   1.752       .  S
Cr1005     O1006   1.751       .  S
N1007      C1011   1.378       .  A
N1007      C1008   1.376       .  A
N1007      N1014   1.438       .  S
C1008      C1009   1.393       .  A
C1009      C1010   1.383       .  A
C1009      H1012   1.083       .  S
C1010      C1011   1.382       .  A
C1010      H1013   1.083       .  S
C1011      C1049   1.527       .  S
N1014      C1018   1.382       .  A
N1014      C1015   1.377       .  A
C1015      C1538   1.549   1_545  S
C1015      C1490   1.396       .  A
C1016      C1489   1.396       .  A
C1016      C1017   1.385       .  A
C1016      H1019   1.083       .  S
C1017      C1492   1.380       .  A
C1017      H1020   1.083       .  S
C1018      C1491   1.380       .  A
N1021      C1025   1.376       .  A
N1021      C1022   1.378       .  A
N1021      N1028   1.443       .  S
C1023      C1024   1.381       .  A
C1023      H1026   1.083       .  S
C1024      H1027   1.083       .  S
N1028      C1032   1.379       .  A
N1028      C1029   1.380       .  A
C1029      C1030   1.380       .  A
C1030      C1031   1.383       .  A
C1030      H1033   1.082       .  S
C1031      C1032   1.393       .  A
C1031      H1034   1.083       .  S
C1032      C1040   1.548       .  S
C1035      C1036   1.525       .  S
C1035      C1041   1.492       .  S
C1035      C1039   1.529       .  S
C1035      C1073   1.500       .  S
C1036      H1043   1.072       .  S
C1036      C1037   1.386       .  D
C1037      C1038   1.586       .  S
C1037      C1575   1.523       .  S
C1038      C1042   1.555       .  S
C1038      C1040   1.582       .  S
C1038      H1044   1.110       .  S
C1039      H1045   1.086       .  S
C1039      C1040   1.374       .  D
C1041      H1046   1.081       .  S
C1041      C1042   1.328       .  D
C1042      C1260   1.444       .  S
C1047      C1048   1.516       .  S
C1047      C1053   1.496       .  S
C1047      C1051   1.516       .  S
C1047      C1079   1.479       .  S
C1048      H1055   1.073       .  S
C1048      C1049   1.380       .  D
C1049      C1050   1.602       .  S
C1050      C1054   1.562       .  S
C1050      C1052   1.593       .  S
C1050      H1056   1.109       .  S
C1051      H1057   1.087       .  S
C1051      C1052   1.363       .  D
C1053      H1058   1.083       .  S
C1053      C1054   1.329       .  D
C1054      C1254   1.457       .  S
C1059      C1060   1.519       .  S
C1059      C1065   1.494       .  S
C1059      C1063   1.520       .  S
C1059      C1076   1.488       .  S
C1060      H1067   1.072       .  S
C1060      C1061   1.385       .  D
C1061      C1062   1.592       .  S
C1062      C1066   1.562       .  S
C1062      C1064   1.594       .  S
C1062      H1068   1.109       .  S
C1063      H1069   1.086       .  S
C1063      C1064   1.363       .  D
C1064      C1489   1.549       .  S
C1065      H1070   1.084       .  S
C1065      C1066   1.329       .  D
C1066      C1257   1.452       .  S
O1071     Cr1089   1.973       .  S
O1071      C1079   1.254       .  A
O1072     Cr1089   1.982       .  S
O1072      C1073   1.273       .  A
C1073      O1074   1.263       .  A
O1074     Cr1090   1.996       .  S
O1075     Cr1090   1.969       .  S
O1075      C1076   1.271       .  A
C1076      O1077   1.257       .  A
O1077     Cr1091   1.985       .  S
O1078     Cr1091   1.964       .  S
O1078      C1079   1.270       .  A
O1080     Cr1089   1.970       .  S
O1080      C1088   1.265       .  A
O1081     Cr1089   1.962       .  S
O1081      C1082   1.241       .  A
C1082      C1238   1.428       .  S
C1082      O1083   1.256       .  A
O1083     Cr1090   1.940       .  S
O1084     Cr1090   1.998       .  S
O1084      C1085   1.248       .  A
C1085      C1214   1.460       .  S
C1085      O1086   1.263       .  A
O1086     Cr1091   1.953       .  S
O1087     Cr1091   1.966       .  S
O1087      C1088   1.241       .  A
C1088      C1226   1.446       .  S
Cr1089     O1092   1.747       .  S
Cr1090     O1092   1.748       .  S
Cr1091     O1092   1.749       .  S
N1093      C1097   1.382       .  A
N1093      C1094   1.376       .  A
N1093      N1100   1.440       .  S
C1095      H1098   1.083       .  S
C1096      C1097   1.381       .  A
N1100      C1104   1.373       .  A
N1100      C1101   1.376       .  A
C1101      C1511   1.523   1_545  S
C1101      C1576   1.380       .  A
C1102      C1575   1.380       .  A
C1102      C1577   1.381       .  A
C1102      H1105   1.083       .  S
C1103      C1576   1.381       .  A
C1103      C1104   1.394       .  A
C1103      H1580   1.083       .  S
H1106      C1577   1.083       .  S
C1107      C1108   1.530       .  S
C1107      C1113   1.494       .  S
C1107      C1111   1.529       .  S
C1107      C1151   1.495       .  S
C1108      H1115   1.086       .  S
C1108      C1109   1.376       .  D
C1109      C1110   1.581       .  S
C1109      C1187   1.540       .  S
C1110      C1114   1.558       .  S
C1110      C1112   1.588       .  S
C1110      H1116   1.110       .  S
C1111      H1117   1.076       .  S
C1111      C1112   1.382       .  D
C1112      C1197   1.527       .  S
C1113      H1118   1.085       .  S
C1113      C1114   1.323       .  D
C1114      C1312   1.446       .  S
C1119      C1120   1.512       .  S
C1119      C1125   1.497       .  S
C1119      C1123   1.524       .  S
C1119      C1148   1.472       .  S
C1120      H1127   1.087       .  S
C1120      C1121   1.366       .  D
C1121      C1122   1.575       .  S
C1121      C1176   1.520       .  S
C1122      C1126   1.561       .  S
C1122      C1124   1.593       .  S
C1122      H1128   1.110       .  S
C1123      H1129   1.078       .  S
C1123      C1124   1.382       .  D
C1124      C1183   1.520       .  S
C1125      H1130   1.086       .  S
C1125      C1126   1.321       .  D
C1126      C1315   1.452       .  S
C1131      C1132   1.499       .  S
C1131      C1137   1.510       .  S
C1131      C1135   1.514       .  S
C1131      C1145   1.473       .  S
C1132      H1139   1.086       .  S
C1132      C1133   1.371       .  D
C1133      C1134   1.603       .  S
C1133      C1204   1.541       .  S
C1134      C1138   1.534       .  S
C1134      C1136   1.607       .  S
C1134      H1140   1.110       .  S
C1135      H1141   1.081       .  S
C1135      C1136   1.390       .  D
C1136      C1166   1.552       .  S
C1137      H1142   1.082       .  S
C1137      C1138   1.320       .  D
C1138      C1318   1.437       .  S
O1143      C1151   1.270       .  A
O1144     Cr1635   1.971   1_545  S
O1144      C1145   1.255       .  A
C1145      O1146   1.269       .  A
O1146     Cr1162   1.958       .  S
O1147      C1148   1.250       .  A
C1148      O1149   1.276       .  A
O1149     Cr1637   1.973   1_545  S
O1150     Cr1163   1.987       .  S
O1150      C1151   1.256       .  A
O1152      C1160   1.245       .  A
O1153     Cr1635   1.972   1_545  S
O1153      C1154   1.265       .  A
C1154      C1284   1.445       .  S
C1154      O1155   1.244       .  A
O1155     Cr1162   1.973       .  S
O1156      C1157   1.258       .  A
C1157      C1296   1.434       .  S
C1157      O1158   1.241   1_545  A
O1158     Cr1637   1.967       .  S
O1159     Cr1163   1.961       .  S
O1159      C1160   1.265       .  A
C1160      C1272   1.440       .  S
Cr1161     O1618   1.971       .  S
Cr1161     O1627   1.972       .  S
Cr1163     O1623   1.974       .  S
Cr1163     O1632   1.967       .  S
Cr1163     O1638   1.746       .  S
O1164     Cr1637   1.746   1_545  S
N1165      C1643   1.381   1_545  A
N1165      C1166   1.399       .  A
N1165      N1172   1.469       .  S
C1166      C1167   1.395   1_545  A
C1167      C1642   1.367       .  A
C1167      H1170   1.082   1_565  S
C1168      C1641   1.367       .  A
C1168      C1169   1.379       .  A
C1168      H1171   1.076       .  S
C1169      C1212   1.505       .  S
C1169      N1639   1.381       .  A
N1172      C1176   1.379       .  A
N1172      C1647   1.401   1_545  A
C1173      C1233   1.532       .  S
C1173      N1646   1.401       .  A
C1173      C1174   1.383       .  A
C1174      C1649   1.373       .  A
C1174      H1177   1.083       .  S
C1175      C1648   1.373       .  A
C1175      C1176   1.395   1_565  A
C1175      H1178   1.083       .  S
N1179      C1183   1.373       .  A
N1179      N1186   1.438       .  S
C1180      C1224   1.548       .  S
C1181      C1182   1.382       .  A
C1182      C1183   1.381       .  A
C1182      H1185   1.083       .  S
N1186      C1187   1.377       .  A
C1187      C1188   1.389   1_655  A
C1188      H1191   1.083   1_455  S
C1189      C1190   1.379       .  A
C1189      H1192   1.075       .  S
C1190      C1209   1.528       .  S
N1193      C1197   1.378       .  A
N1193      C1194   1.369       .  A
N1193      N1200   1.441       .  S
C1194      C1236   1.536       .  S
C1194      C1195   1.393       .  A
C1195      C1196   1.381       .  A
C1195      H1198   1.084       .  S
C1196      C1197   1.382       .  A
C1196      H1199   1.083       .  S
N1200      C1204   1.371       .  A
N1200      C1201   1.384       .  A
C1201      C1221   1.537       .  S
C1201      C1202   1.381       .  A
C1202      C1203   1.385       .  A
C1202      H1205   1.083       .  S
C1203      C1204   1.396       .  A
C1203      H1206   1.083       .  S
C1207      C1208   1.537       .  S
C1207      C1213   1.483       .  S
C1207      C1211   1.536       .  S
C1207      C1248   1.491       .  S
C1208      C1209   1.377       .  D
C1209      C1210   1.580       .  S
C1210      C1214   1.575       .  S
C1210      C1212   1.562       .  S
C1210      H1216   1.109       .  S
C1211      H1691   1.077       .  S
C1211      C1212   1.369       .  D
C1213      H1218   1.082       .  S
C1213      C1214   1.328       .  D
H1217      C1685   1.077       .  S
C1219      C1220   1.520       .  S
C1219      C1225   1.497       .  S
C1219      C1223   1.534       .  S
C1219      C1245   1.490       .  S
C1220      H1227   1.079       .  S
C1220      C1221   1.377       .  D
C1221      C1222   1.606       .  S
C1222      C1226   1.552       .  S
C1222      C1224   1.582       .  S
C1222      H1228   1.109       .  S
C1223      C1224   1.373       .  D
C1225      H1230   1.082       .  S
C1225      C1226   1.326       .  D
C1231      C1232   1.530       .  S
C1231      C1237   1.493       .  S
C1231      C1235   1.531       .  S
C1231      C1251   1.500       .  S
C1232      H1713   1.078       .  S
C1232      C1233   1.380       .  D
C1233      C1234   1.595       .  S
C1234      C1238   1.540       .  S
C1234      C1236   1.569       .  S
C1234      H1240   1.110       .  S
C1235      H1241   1.085       .  S
C1235      C1236   1.376       .  D
C1237      H1242   1.079       .  S
C1237      C1238   1.328       .  D
H1239      C1706   1.077   1_545  S
O1243     Cr1735   1.989       .  S
O1243      C1251   1.267       .  A
O1244      C1245   1.257       .  A
C1245      O1246   1.268       .  A
O1246     Cr1262   1.990       .  S
O1247     Cr1736   1.975       .  S
O1247      C1248   1.259       .  A
O1249     Cr1263   1.992       .  S
O1250     Cr1263   1.987       .  S
O1250      C1251   1.264       .  A
O1252     Cr1735   1.978       .  S
O1252      C1260   1.249       .  A
O1253      C1254   1.263       .  A
C1254      O1255   1.249       .  A
O1255     Cr1262   1.991       .  S
O1256     Cr1736   1.942       .  S
O1256      C1257   1.258       .  A
C1257      O1258   1.252       .  A
O1259     Cr1263   1.949       .  S
O1259      C1260   1.261       .  A
Cr1261     O1717   1.989       .  S
Cr1261     O1726   1.978       .  S
Cr1261     O1264   1.742       .  S
Cr1262     O1721   1.975   1_545  S
Cr1262     O1730   1.942   1_545  S
Cr1263     O1738   1.745       .  S
O1264     Cr1737   1.745   1_545  S
C1265      C1266   1.529       .  S
C1265      C1271   1.494       .  S
C1265      C1269   1.524       .  S
C1265      C1303   1.488       .  S
C1266      H1273   1.078       .  S
C1266      C1267   1.384       .  D
C1267      C1268   1.598       .  S
C1268      C1272   1.555       .  S
C1268      C1270   1.584       .  S
C1268      H1274   1.110       .  S
C1269      H1275   1.086       .  S
C1269      C1270   1.372       .  D
C1270      C1334   1.545       .  S
C1271      H1276   1.085       .  S
C1271      C1272   1.320       .  D
C1277      C1278   1.529       .  S
C1277      C1283   1.498       .  S
C1277      C1281   1.525       .  S
C1277      C1309   1.494       .  S
C1278      H1285   1.077       .  S
C1278      C1279   1.384       .  D
C1279      C1280   1.598       .  S
C1279      C1355   1.536       .  S
C1280      C1284   1.553       .  S
C1280      C1282   1.585       .  S
C1280      H1286   1.110       .  S
C1281      H1287   1.087       .  S
C1281      C1282   1.371       .  D
C1282      C1815   1.547   1_545  S
C1283      H1288   1.084       .  S
C1283      C1284   1.328       .  D
C1289      C1290   1.529       .  S
C1289      C1295   1.492       .  S
C1289      C1293   1.524       .  S
C1289      C1306   1.486       .  S
C1290      H1297   1.074       .  S
C1290      C1291   1.386       .  D
C1291      C1292   1.595       .  S
C1291      C1324   1.534   1_545  S
C1292      C1296   1.554       .  S
C1292      C1294   1.583       .  S
C1292      H1298   1.110       .  S
C1293      H1299   1.087       .  S
C1293      C1294   1.369       .  D
C1294      C1359   1.545   1_655  S
C1295      H1300   1.088       .  S
C1295      C1296   1.323       .  D
O1301     Cr1319   1.984       .  S
O1301      C1309   1.257       .  A
O1302     Cr1319   1.976       .  S
O1302      C1303   1.274       .  A
C1303      O1304   1.255       .  A
O1304     Cr1320   1.981       .  S
O1305     Cr1320   1.967       .  S
O1305      C1306   1.272       .  A
C1306      O1307   1.255       .  A
O1307     Cr1321   1.983       .  S
O1308     Cr1321   1.981       .  S
O1308      C1309   1.274       .  A
O1310     Cr1319   1.963       .  S
O1310      C1318   1.261       .  A
O1311     Cr1319   1.979       .  S
O1311      C1312   1.245       .  A
C1312      O1313   1.261       .  A
O1313     Cr1320   1.957       .  S
O1314     Cr1320   1.972       .  S
O1314      C1315   1.243       .  A
C1315      O1316   1.267       .  A
O1316     Cr1321   1.978       .  S
O1317     Cr1321   1.964       .  S
O1317      C1318   1.243       .  A
Cr1319     O1322   1.749       .  S
Cr1320     O1322   1.753       .  S
Cr1321     O1322   1.746       .  S
N1323      C1327   1.372       .  A
N1323      C1798   1.383       .  A
N1323      N1330   1.441       .  S
C1324      N1797   1.383       .  A
C1324      C1325   1.381   1_565  A
C1325      C1326   1.382   1_545  A
C1325      H1328   1.083       .  S
C1326      C1801   1.394       .  A
C1326      H1329   1.083       .  S
C1327      C1379   1.540       .  S
C1327      C1800   1.394       .  A
N1330      C1334   1.376       .  A
N1330      C1331   1.384       .  A
C1331      C1370   1.535       .  S
C1331      C1332   1.381       .  A
C1332      C1333   1.383       .  A
C1332      H1335   1.083       .  S
C1333      C1334   1.394       .  A
C1333      H1336   1.083       .  S
N1337      C1341   1.374       .  A
N1337      C1338   1.384       .  A
N1337      N1344   1.442       .  S
C1338      C1382   1.531       .  S
C1338      C1813   1.381       .  A
C1339      C1812   1.381       .  A
C1339      C1340   1.382       .  A
C1339      H1342   1.083       .  S
C1340      C1815   1.395       .  A
C1340      H1343   1.083       .  S
C1341      C1756   1.547       .  S
C1341      C1814   1.395       .  A
N1344      C1348   1.382       .  A
N1344      C1345   1.373       .  A
C1345      C1391   1.541       .  S
C1346      C1347   1.381   1_455  A
C1346      H1349   1.083       .  S
C1347      H1350   1.083       .  S
N1351      C1355   1.382       .  A
N1351      C1352   1.375       .  A
N1351      N1358   1.445       .  S
C1352      C1367   1.543       .  S
C1352      C1353   1.393       .  A
C1353      C1354   1.382       .  A
C1353      H1356   1.084       .  S
C1354      C1355   1.382       .  A
C1354      H1357   1.082       .  S
N1358      C1362   1.383       .  A
C1359      C1360   1.395       .  A
C1360      C1361   1.383       .  A
C1360      H1363   1.083       .  S
C1361      H1364   1.083       .  S
C1362      C1394   1.537       .  S
C1365      C1366   1.528       .  S
C1365      C1371   1.496       .  S
C1365      C1369   1.521       .  S
C1365      C1406   1.488       .  S
C1366      H1373   1.086       .  S
C1366      C1367   1.371       .  D
C1367      C1368   1.575       .  S
C1368      C1372   1.558       .  S
C1368      C1370   1.611       .  S
C1368      H1374   1.109       .  S
C1369      H1375   1.077       .  S
C1369      C1370   1.382       .  D
C1371      H1376   1.085       .  S
C1371      C1372   1.326       .  D
C1377      C1378   1.523       .  S
C1377      C1857   1.497   1_545  S
C1377      C1381   1.518       .  S
C1377      C1409   1.482       .  S
C1378      H1385   1.086       .  S
C1378      C1853   1.366   1_545  D
C1379      C1380   1.579       .  S
C1379      C1852   1.366       .  D
C1380      C1384   1.555       .  S
C1380      C1382   1.607       .  S
C1380      H1386   1.109       .  S
C1381      H1387   1.076       .  S
C1381      C1856   1.382   1_545  D
C1382      C1855   1.382       .  D
C1383      C1851   1.497       .  S
C1383      H1388   1.082       .  S
C1383      C1384   1.325       .  D
C1389      C1390   1.531       .  S
C1389      C1393   1.528       .  S
C1389      C1403   1.499       .  S
C1390      H1397   1.087       .  S
C1391      C1392   1.574       .  S
C1392      C1396   1.553       .  S
C1392      C1394   1.601       .  S
C1392      H1398   1.110       .  S
C1393      H1399   1.076       .  S
C1395      H1400   1.082       .  S
C1395      C1396   1.328       .  D
O1401     Cr1419   1.955       .  S
O1401      C1409   1.271       .  A
O1402     Cr1419   1.997       .  S
O1402      C1403   1.261       .  A
C1403      O1404   1.273       .  A
O1404     Cr1420   1.973       .  S
O1405     Cr1420   1.984       .  S
O1405      C1406   1.256       .  A
C1406      O1407   1.272       .  A
O1407     Cr1421   1.965       .  S
O1408     Cr1421   1.981       .  S
O1408      C1409   1.256       .  A
O1410     Cr1419   1.997       .  S
O1410      C1418   1.249       .  A
O1411     Cr1419   1.943       .  S
O1411      C1412   1.258       .  A
C1412      O1413   1.245       .  A
O1413     Cr1420   1.983       .  S
O1414     Cr1420   1.957       .  S
O1414      C1415   1.262       .  A
C1415      O1416   1.243       .  A
O1416     Cr1421   1.976       .  S
O1417     Cr1421   1.953       .  S
O1417      C1418   1.260       .  A
Cr1419     O1422   1.748       .  S
Cr1420     O1422   1.750       .  S
Cr1421     O1422   1.753       .  S
C1423      C1424   1.523       .  S
C1423      C1429   1.496       .  S
C1423      C1427   1.520       .  S
C1423      C1464   1.487       .  S
C1424      H1431   1.085       .  S
C1424      C1425   1.370       .  D
C1425      C1426   1.579       .  S
C1425      C1482   1.544       .  S
C1426      C1430   1.554       .  S
C1426      C1428   1.606       .  S
C1426      H1432   1.109       .  S
C1427      H1433   1.078       .  S
C1427      C1428   1.382       .  D
C1428      C1503   1.530       .  S
C1429      H1434   1.083   1_554  S
C1429      C1430   1.324       .  D
C1430      C1889   1.448   1_554  S
C1435      C1436   1.527       .  S
C1435      C1439   1.523       .  S
C1435      C1467   1.496       .  S
C1436      H1443   1.086       .  S
C1437      C1438   1.571       .  S
C1437      C1499   1.544       .  S
C1438      C1442   1.554       .  S
C1438      C1440   1.607       .  S
C1438      H1444   1.110       .  S
C1439      H1445   1.075       .  S
C1440      C1571   1.536       .  S
C1441      H1446   1.083   1_554  S
C1441      C1442   1.330       .  D
C1442      C1886   1.446   1_554  S
C1447      C1448   1.526       .  S
C1447      C1451   1.520   1_565  S
C1447      C1461   1.490       .  S
C1448      H1455   1.086       .  S
C1449      C1450   1.572       .  S
C1449      C1578   1.540       .  S
C1450      C1454   1.558       .  S
C1450      C1452   1.611       .  S
C1450      H1456   1.110       .  S
C1451      H1457   1.077   1_545  S
C1452      C1492   1.535       .  S
C1453      H1458   1.082   1_554  S
C1453      C1454   1.330       .  D
C1454      C1892   1.459   1_554  S
O1459     Cr1477   1.972   1_554  S
O1459      C1467   1.273       .  A
O1460     Cr1477   1.988   1_554  S
O1460      C1461   1.257       .  A
C1461      O1462   1.271       .  A
O1462     Cr1478   1.964   1_554  S
O1463     Cr1478   1.980   1_554  S
O1463      C1464   1.256       .  A
C1464      O1465   1.274       .  A
O1465     Cr1479   1.969   1_554  S
O1466     Cr1479   1.991   1_554  S
O1466      C1467   1.259       .  A
O1468     Cr1477   1.975       .  S
O1468      C1476   1.243       .  A
O1469     Cr1477   1.961       .  S
O1469      C1470   1.263       .  A
C1470      C1858   1.449       .  S
C1470      O1471   1.242       .  A
O1471     Cr1478   1.973       .  S
O1472     Cr1478   1.952       .  S
O1472      C1473   1.261       .  A
C1473      C1846   1.455       .  S
C1473      O1474   1.246       .  A
O1474     Cr1479   1.987       .  S
O1475     Cr1479   1.958       .  S
O1475      C1476   1.261       .  A
C1476      C1870   1.447       .  S
Cr1477     O1480   1.747       .  S
Cr1478     O1480   1.752       .  S
Cr1479     O1480   1.751       .  S
N1481      C1485   1.378       .  A
N1481      C1482   1.376       .  A
N1481      N1488   1.438       .  S
C1482      C1483   1.393       .  A
C1483      C1484   1.383       .  A
C1483      H1486   1.083       .  S
C1484      C1485   1.382       .  A
C1484      H1487   1.083       .  S
C1485      C1523   1.527       .  S
N1488      C1492   1.382       .  A
N1488      C1489   1.377       .  A
C1490      C1491   1.385       .  A
C1490      H1493   1.083       .  S
C1491      H1494   1.083       .  S
N1495      C1499   1.376       .  A
N1495      C1496   1.378       .  A
N1495      N1502   1.443       .  S
C1497      C1498   1.381       .  A
C1497      H1500   1.083       .  S
C1498      H1501   1.083       .  S
N1502      C1506   1.379       .  A
N1502      C1503   1.380       .  A
C1503      C1504   1.380       .  A
C1504      C1505   1.383       .  A
C1504      H1507   1.082       .  S
C1505      C1506   1.393       .  A
C1505      H1508   1.083       .  S
C1506      C1514   1.548       .  S
C1509      C1510   1.525       .  S
C1509      C1515   1.492       .  S
C1509      C1513   1.529       .  S
C1509      C1547   1.500       .  S
C1510      H1517   1.072       .  S
C1510      C1511   1.386       .  D
C1511      C1512   1.586       .  S
C1512      C1516   1.555       .  S
C1512      C1514   1.582       .  S
C1512      H1518   1.110       .  S
C1513      H1519   1.086       .  S
C1513      C1514   1.373       .  D
C1515      H1520   1.081       .  S
C1515      C1516   1.328       .  D
C1516      C1734   1.443       .  S
C1521      C1522   1.516       .  S
C1521      C1527   1.496       .  S
C1521      C1525   1.516       .  S
C1521      C1553   1.479       .  S
C1522      H1529   1.073       .  S
C1522      C1523   1.380       .  D
C1523      C1524   1.602       .  S
C1524      C1528   1.562       .  S
C1524      C1526   1.593       .  S
C1524      H1530   1.109       .  S
C1525      H1531   1.087       .  S
C1525      C1526   1.363       .  D
C1527      H1532   1.083       .  S
C1527      C1528   1.329       .  D
C1528      C1728   1.457       .  S
C1533      C1534   1.519       .  S
C1533      C1539   1.494       .  S
C1533      C1537   1.520       .  S
C1533      C1550   1.488       .  S
C1534      H1541   1.072       .  S
C1534      C1535   1.385       .  D
C1535      C1536   1.592       .  S
C1536      C1540   1.562       .  S
C1536      C1538   1.594       .  S
C1536      H1542   1.109       .  S
C1537      H1543   1.086       .  S
C1537      C1538   1.363       .  D
C1539      H1544   1.084       .  S
C1539      C1540   1.329       .  D
C1540      C1731   1.452       .  S
O1545     Cr1563   1.973       .  S
O1545      C1553   1.254       .  A
O1546     Cr1563   1.981       .  S
O1546      C1547   1.273       .  A
C1547      O1548   1.263       .  A
O1548     Cr1564   1.996       .  S
O1549     Cr1564   1.969       .  S
O1549      C1550   1.272       .  A
C1550      O1551   1.257       .  A
O1551     Cr1565   1.985       .  S
O1552     Cr1565   1.964       .  S
O1552      C1553   1.270       .  A
O1554     Cr1563   1.970       .  S
O1554      C1562   1.265       .  A
O1555     Cr1563   1.962       .  S
O1555      C1556   1.241       .  A
C1556      C1712   1.427       .  S
C1556      O1557   1.256       .  A
O1557     Cr1564   1.940       .  S
O1558     Cr1564   1.998       .  S
O1558      C1559   1.248       .  A
C1559      C1688   1.460       .  S
C1559      O1560   1.263       .  A
O1560     Cr1565   1.953       .  S
O1561     Cr1565   1.966       .  S
O1561      C1562   1.241       .  A
C1562      C1700   1.446       .  S
Cr1563     O1566   1.747       .  S
Cr1564     O1566   1.749       .  S
Cr1565     O1566   1.749       .  S
N1567      C1571   1.382       .  A
N1567      C1568   1.376       .  A
N1567      N1574   1.440       .  S
C1569      H1572   1.083       .  S
C1570      C1571   1.381       .  A
N1574      C1578   1.373       .  A
N1574      C1575   1.376       .  A
C1576      H1579   1.083   1_545  S
C1577      C1578   1.394       .  A
C1581      C1582   1.530       .  S
C1581      C1587   1.494       .  S
C1581      C1585   1.529       .  S
C1581      C1625   1.495       .  S
C1582      H1589   1.086       .  S
C1582      C1583   1.376       .  D
C1583      C1584   1.581       .  S
C1583      C1661   1.540       .  S
C1584      C1588   1.558       .  S
C1584      C1586   1.588       .  S
C1584      H1590   1.110       .  S
C1585      H1591   1.076       .  S
C1585      C1586   1.382       .  D
C1586      C1671   1.527       .  S
C1587      H1592   1.085       .  S
C1587      C1588   1.323       .  D
C1588      C1786   1.446       .  S
C1593      C1594   1.512       .  S
C1593      C1599   1.497       .  S
C1593      C1597   1.524       .  S
C1593      C1622   1.472       .  S
C1594      H1601   1.087       .  S
C1594      C1595   1.367       .  D
C1595      C1596   1.575       .  S
C1595      C1650   1.520       .  S
C1596      C1600   1.561       .  S
C1596      C1598   1.593       .  S
C1596      H1602   1.110       .  S
C1597      H1603   1.079       .  S
C1597      C1598   1.382       .  D
C1598      C1657   1.520       .  S
C1599      H1604   1.086       .  S
C1599      C1600   1.321       .  D
C1600      C1789   1.452       .  S
C1605      C1606   1.500       .  S
C1605      C1611   1.510       .  S
C1605      C1609   1.514       .  S
C1605      C1619   1.473       .  S
C1606      H1613   1.086       .  S
C1606      C1607   1.371       .  D
C1607      C1608   1.603       .  S
C1607      C1678   1.541       .  S
C1608      C1612   1.534       .  S
C1608      C1610   1.606       .  S
C1608      H1614   1.110       .  S
C1609      H1615   1.081       .  S
C1609      C1610   1.390       .  D
C1610      C1640   1.552       .  S
C1611      H1616   1.082       .  S
C1611      C1612   1.320       .  D
C1612      C1792   1.437       .  S
O1617      C1625   1.270       .  A
O1618      C1619   1.255       .  A
C1619      O1620   1.269       .  A
O1620     Cr1636   1.958       .  S
O1621      C1622   1.250       .  A
C1622      O1623   1.276       .  A
O1624     Cr1637   1.987       .  S
O1624      C1625   1.256       .  A
O1626      C1634   1.244       .  A
O1627      C1628   1.265       .  A
C1628      C1758   1.445       .  S
C1628      O1629   1.244       .  A
O1629     Cr1636   1.973       .  S
O1630      C1631   1.258       .  A
C1631      C1770   1.434       .  S
C1631      O1632   1.241       .  A
O1633     Cr1637   1.961       .  S
O1633      C1634   1.265       .  A
C1634      C1746   1.440       .  S
N1639      C1640   1.399       .  A
N1639      N1646   1.469       .  S
C1640      C1641   1.395       .  A
C1641      H1644   1.083       .  S
C1642      C1643   1.379       .  A
C1642      H1645   1.075       .  S
C1643      C1686   1.505       .  S
N1646      C1650   1.379       .  A
C1647      C1707   1.532       .  S
C1647      C1648   1.383       .  A
C1648      H1651   1.083       .  S
C1649      C1650   1.395       .  A
C1649      H1652   1.083       .  S
N1653      C1657   1.373       .  A
N1653      N1660   1.438       .  S
C1654      C1698   1.548       .  S
C1655      C1656   1.382       .  A
C1656      C1657   1.381       .  A
C1656      H1659   1.083       .  S
N1660      C1661   1.377       .  A
C1661      C1662   1.389   1_655  A
C1662      H1665   1.083       .  S
C1663      C1664   1.379       .  A
C1663      H1666   1.075       .  S
C1664      C1683   1.528       .  S
N1667      C1671   1.378       .  A
N1667      C1668   1.369       .  A
N1667      N1674   1.441       .  S
C1668      C1710   1.536       .  S
C1668      C1669   1.393       .  A
C1669      C1670   1.381       .  A
C1669      H1672   1.083       .  S
C1670      C1671   1.382       .  A
C1670      H1673   1.083       .  S
N1674      C1678   1.371       .  A
N1674      C1675   1.384       .  A
C1675      C1695   1.537       .  S
C1675      C1676   1.381       .  A
C1676      C1677   1.385       .  A
C1676      H1679   1.083       .  S
C1677      C1678   1.396       .  A
C1677      H1680   1.083       .  S
C1681      C1682   1.537       .  S
C1681      C1687   1.483       .  S
C1681      C1685   1.536       .  S
C1681      C1722   1.491       .  S
C1682      C1683   1.377       .  D
C1683      C1684   1.580       .  S
C1684      C1688   1.575       .  S
C1684      C1686   1.561       .  S
C1684      H1690   1.109       .  S
C1685      C1686   1.369       .  D
C1687      H1692   1.082       .  S
C1687      C1688   1.328       .  D
C1693      C1694   1.520       .  S
C1693      C1699   1.497       .  S
C1693      C1697   1.534       .  S
C1693      C1719   1.490       .  S
C1694      H1701   1.079       .  S
C1694      C1695   1.377       .  D
C1695      C1696   1.606       .  S
C1696      C1700   1.552       .  S
C1696      C1698   1.582       .  S
C1696      H1702   1.109       .  S
C1697      C1698   1.373       .  D
C1699      H1704   1.081       .  S
C1699      C1700   1.326       .  D
C1705      C1706   1.531       .  S
C1705      C1711   1.493       .  S
C1705      C1709   1.531       .  S
C1705      C1725   1.500       .  S
C1706      C1707   1.380       .  D
C1707      C1708   1.595       .  S
C1708      C1712   1.540       .  S
C1708      C1710   1.569       .  S
C1708      H1714   1.110       .  S
C1709      H1715   1.085       .  S
C1709      C1710   1.376       .  D
C1711      H1716   1.079       .  S
C1711      C1712   1.328       .  D
O1717      C1725   1.267   1_545  A
O1718      C1719   1.257       .  A
C1719      O1720   1.268       .  A
O1720     Cr1736   1.990       .  S
O1721      C1722   1.259       .  A
O1723     Cr1737   1.992       .  S
O1724     Cr1737   1.986       .  S
O1724      C1725   1.264       .  A
O1726      C1734   1.249   1_545  A
O1727      C1728   1.263       .  A
C1728      O1729   1.249       .  A
O1729     Cr1736   1.991       .  S
O1730      C1731   1.258       .  A
C1731      O1732   1.252       .  A
O1733     Cr1737   1.949       .  S
O1733      C1734   1.261       .  A
Cr1735     O1738   1.742       .  S
C1739      C1740   1.529       .  S
C1739      C1745   1.494       .  S
C1739      C1743   1.524       .  S
C1739      C1777   1.488       .  S
C1740      H1747   1.078       .  S
C1740      C1741   1.384       .  D
C1741      C1742   1.598       .  S
C1742      C1746   1.555       .  S
C1742      C1744   1.584       .  S
C1742      H1748   1.110       .  S
C1743      H1749   1.086       .  S
C1743      C1744   1.372       .  D
C1744      C1808   1.545       .  S
C1745      H1750   1.085       .  S
C1745      C1746   1.320       .  D
C1751      C1752   1.529       .  S
C1751      C1757   1.498       .  S
C1751      C1755   1.525       .  S
C1751      C1783   1.494       .  S
C1752      H1759   1.077       .  S
C1752      C1753   1.384       .  D
C1753      C1754   1.598       .  S
C1753      C1829   1.536       .  S
C1754      C1758   1.553       .  S
C1754      C1756   1.585       .  S
C1754      H1760   1.110       .  S
C1755      H1761   1.087       .  S
C1755      C1756   1.371       .  D
C1757      H1762   1.084       .  S
C1757      C1758   1.328       .  D
C1763      C1764   1.529       .  S
C1763      C1769   1.492       .  S
C1763      C1767   1.524       .  S
C1763      C1780   1.486       .  S
C1764      H1771   1.074       .  S
C1764      C1765   1.386       .  D
C1765      C1766   1.595       .  S
C1765      C1798   1.534       .  S
C1766      C1770   1.554       .  S
C1766      C1768   1.583       .  S
C1766      H1772   1.110       .  S
C1767      H1773   1.087       .  S
C1767      C1768   1.369       .  D
C1768      C1833   1.545   1_655  S
C1769      H1774   1.088       .  S
C1769      C1770   1.323       .  D
O1775     Cr1793   1.984       .  S
O1775      C1783   1.257       .  A
O1776     Cr1793   1.976       .  S
O1776      C1777   1.274       .  A
C1777      O1778   1.255       .  A
O1778     Cr1794   1.981       .  S
O1779     Cr1794   1.967       .  S
O1779      C1780   1.272       .  A
C1780      O1781   1.255       .  A
O1781     Cr1795   1.983       .  S
O1782     Cr1795   1.981       .  S
O1782      C1783   1.274       .  A
O1784     Cr1793   1.963       .  S
O1784      C1792   1.261       .  A
O1785     Cr1793   1.979       .  S
O1785      C1786   1.245       .  A
C1786      O1787   1.261       .  A
O1787     Cr1794   1.957       .  S
O1788     Cr1794   1.972       .  S
O1788      C1789   1.243       .  A
C1789      O1790   1.267       .  A
O1790     Cr1795   1.978       .  S
O1791     Cr1795   1.964       .  S
O1791      C1792   1.243       .  A
Cr1793     O1796   1.749       .  S
Cr1794     O1796   1.753       .  S
Cr1795     O1796   1.746       .  S
N1797      C1801   1.372       .  A
N1797      N1804   1.441       .  S
C1798      C1799   1.381       .  A
C1799      C1800   1.382       .  A
C1799      H1802   1.083       .  S
C1800      H1803   1.083       .  S
C1801      C1853   1.540       .  S
N1804      C1808   1.376       .  A
N1804      C1805   1.384       .  A
C1805      C1844   1.535       .  S
C1805      C1806   1.381       .  A
C1806      C1807   1.383       .  A
C1806      H1809   1.083       .  S
C1807      C1808   1.394       .  A
C1807      H1810   1.083       .  S
N1811      C1815   1.374       .  A
N1811      C1812   1.384       .  A
N1811      N1818   1.442       .  S
C1812      C1856   1.531       .  S
C1813      C1814   1.382       .  A
C1813      H1816   1.083       .  S
C1814      H1817   1.083       .  S
N1818      C1822   1.382       .  A
N1818      C1819   1.373       .  A
C1819      C1865   1.541       .  S
C1820      C1821   1.381   1_455  A
C1820      H1823   1.083       .  S
C1821      H1824   1.083       .  S
N1825      C1829   1.382       .  A
N1825      C1826   1.375       .  A
N1825      N1832   1.445       .  S
C1826      C1841   1.543       .  S
C1826      C1827   1.393       .  A
C1827      C1828   1.382       .  A
C1827      H1830   1.084       .  S
C1828      C1829   1.382       .  A
C1828      H1831   1.082       .  S
N1832      C1836   1.383       .  A
C1833      C1834   1.395       .  A
C1834      C1835   1.383       .  A
C1834      H1837   1.083       .  S
C1835      H1838   1.083       .  S
C1836      C1868   1.537       .  S
C1839      C1840   1.528       .  S
C1839      C1845   1.496       .  S
C1839      C1843   1.521       .  S
C1839      C1880   1.488       .  S
C1840      H1847   1.086       .  S
C1840      C1841   1.371       .  D
C1841      C1842   1.574       .  S
C1842      C1846   1.558       .  S
C1842      C1844   1.611       .  S
C1842      H1848   1.109       .  S
C1843      H1849   1.077       .  S
C1843      C1844   1.382       .  D
C1845      H1850   1.084       .  S
C1845      C1846   1.326       .  D
C1851      C1852   1.523       .  S
C1851      C1855   1.518       .  S
C1851      C1883   1.482       .  S
C1852      H1859   1.086       .  S
C1853      C1854   1.579       .  S
C1854      C1858   1.555       .  S
C1854      C1856   1.607       .  S
C1854      H1860   1.109       .  S
C1855      H1861   1.076       .  S
C1857      H1862   1.082   1_565  S
C1857      C1858   1.325       .  D
C1863      C1864   1.531       .  S
C1863      C1867   1.528       .  S
C1863      C1877   1.499       .  S
C1864      H1871   1.087       .  S
C1865      C1866   1.574       .  S
C1866      C1870   1.553       .  S
C1866      C1868   1.602       .  S
C1866      H1872   1.110       .  S
C1867      H1873   1.076       .  S
C1869      H1874   1.082       .  S
C1869      C1870   1.328       .  D
O1875     Cr1893   1.955       .  S
O1875      C1883   1.271       .  A
O1876     Cr1893   1.997       .  S
O1876      C1877   1.261       .  A
C1877      O1878   1.273       .  A
O1878     Cr1894   1.973       .  S
O1879     Cr1894   1.984       .  S
O1879      C1880   1.256       .  A
C1880      O1881   1.272       .  A
O1881     Cr1895   1.965       .  S
O1882     Cr1895   1.981       .  S
O1882      C1883   1.256       .  A
O1884     Cr1893   1.997       .  S
O1884      C1892   1.249       .  A
O1885     Cr1893   1.943       .  S
O1885      C1886   1.258       .  A
C1886      O1887   1.245       .  A
O1887     Cr1894   1.983       .  S
O1888     Cr1894   1.957       .  S
O1888      C1889   1.262       .  A
C1889      O1890   1.243       .  A
O1890     Cr1895   1.976       .  S
O1891     Cr1895   1.953       .  S
O1891      C1892   1.260       .  A
Cr1893     O1896   1.748       .  S
Cr1894     O1896   1.750       .  S
Cr1895     O1896   1.753       .  S
