geometry optimzed in LAMMPS
_audit_creation_date              2020-11-30 
_audit_creation_method            'lammps2cif' 
_symmetry_space_group_name_H-M    'P1' 
_symmetry_Int_Tables_number       1 
_symmetry_cell_setting            triclinic 
loop_ 
_symmetry_equiv_pos_as_xyz 
  x,y,z 
_cell_length_a                    36.82479516 
_cell_length_b                    36.00157497986087 
_cell_length_c                    38.90504591680221 
_cell_angle_alpha                 89.64827269641098 
_cell_angle_beta                  90.65407709105655 
_cell_angle_gamma                 121.76215568214506 
loop_ 
_atom_site_label 
_atom_site_type_symbol 
_atom_site_fract_x 
_atom_site_fract_y 
_atom_site_fract_z 
_atom_site_charge 
O1          O  0.44652092  0.93080663  0.28628390    -0.79100
O2          O  0.50675110  0.96891727  0.16078993    -0.79100
O3          O  0.41044018  0.96920207  0.21498615    -0.79100
O4          O  0.52054280  0.93377873  0.28327303    -0.79100
O5          O  0.44346047  0.93442637  0.20768946    -0.79200
O6          O  0.51121282  0.95847558  0.33281490    -0.79100
O7          O  0.51695535  0.93825636  0.20705200    -0.79100
O8          O  0.41346820  0.96642342  0.28487014    -0.79200
C9          C  0.41405305  0.93267073  0.29270757     1.10600
C10         C  0.51668057  0.94306398  0.17392106     1.10500
C11         C  0.41036700  0.93616729  0.20383668     1.10600
C12         C  0.51888387  0.93285857  0.31663778     1.10500
O13         O  0.55327888  0.04195499  0.30857392    -0.79100
O14         O  0.47041883  0.01848071  0.17536229    -0.79200
O15         O  0.47860045  0.05752866  0.28722337    -0.79100
O16         O  0.58851601  0.02613531  0.21206992    -0.79100
O17         O  0.54901693  0.04835046  0.19094686    -0.79200
O18         O  0.47546519  0.01055984  0.32521458    -0.79100
O19         O  0.59211280  0.02441695  0.28080994    -0.79100
O20         O  0.47619901  0.06144331  0.21737169    -0.79200
Co21       Co  0.50181577  0.98604131  0.29504553     1.51500
Co22       Co  0.49829891  0.99121916  0.20151486     1.51700
Co23       Co  0.44896759  0.01349905  0.25096598     1.51600
Co24       Co  0.54782585  0.98338757  0.24639936     1.51500
O25         O  0.50256168  0.00776535  0.24924071    -1.41100
C26         C  0.58918932  0.04788633  0.30298742     1.10500
C27         C  0.47123115  0.05221893  0.18586379     1.10600
C28         C  0.47613952  0.04532443  0.31797594     1.10500
C29         C  0.58422726  0.05137867  0.19254459     1.10500
O30         O  0.97818184  0.53734550  0.32401618    -0.79100
O31         O  0.95700198  0.46293633  0.18645739    -0.79100
O32         O  0.94009794  0.53720814  0.21290242    -0.79100
O33         O  0.97039594  0.41890288  0.28105571    -0.79100
O34         O  0.98578070  0.54340342  0.17397951    -0.79200
O35         O  0.94843157  0.45697709  0.30543774    -0.79100
O36         O  0.97495985  0.42179476  0.21179078    -0.79100
O37         O  0.93645565  0.53537111  0.28276328    -0.79200
C38         C  0.94633471  0.53935028  0.31417582     1.10600
C39         C  0.95330396  0.42659027  0.18905839     1.10500
C40         C  0.95134316  0.54119206  0.18200329     1.10600
C41         C  0.94558341  0.42115344  0.30156371     1.10500
O42         O  0.02583710  0.49896175  0.33611965    -0.79100
O43         O  0.06447766  0.57130184  0.21323096    -0.79200
O44         O  0.02656856  0.60194496  0.28667310    -0.79100
O45         O  0.06195984  0.49578794  0.21301188    -0.79100
O46         O  0.03852410  0.50886889  0.16404979    -0.79200
O47         O  0.05963331  0.56684307  0.29179595    -0.79100
O48         O  0.05621064  0.49256255  0.28895705    -0.79100
O49         O  0.02925384  0.60441566  0.21620810    -0.79200
Co50       Co  0.00417059  0.51021472  0.29616774     1.51500
Co51       Co  0.01076935  0.51509858  0.20238890     1.51700
Co52       Co  0.98329468  0.56526845  0.24946276     1.51600
Co53       Co  0.01291483  0.46396701  0.24864145     1.51500
O54         O  0.98851000  0.50995050  0.24836803    -1.41100
C55         C  0.05126810  0.49011849  0.32203152     1.10500
C56         C  0.06274417  0.60497740  0.20840592     1.10600
C57         C  0.05791113  0.60012789  0.29824987     1.10500
C58         C  0.06239437  0.49846021  0.17967131     1.10500
O59         O  0.49635290  0.45160947  0.31858888    -0.79100
O60         O  0.55589323  0.51605891  0.17897159    -0.79100
O61         O  0.44106959  0.39999738  0.22181708    -0.79100
O62         O  0.59224514  0.53918013  0.29384509    -0.79100
O63         O  0.50356855  0.43628435  0.19960184    -0.79200
O64         O  0.53278220  0.48795057  0.32041873    -0.79100
O65         O  0.59757553  0.52697682  0.22381689    -0.79100
O66         O  0.43857530  0.40847844  0.28942503    -0.79200
C67         C  0.46378764  0.41381902  0.31379316     1.10600
C68         C  0.59142160  0.52423254  0.19159979     1.10500
C69         C  0.46985097  0.40053026  0.20463222     1.10600
C70         C  0.57366752  0.51250159  0.31835085     1.10500
O71         O  0.52753610  0.55035437  0.32026147    -0.79100
O72         O  0.46822667  0.47369039  0.16200586    -0.79200
O73         O  0.42476860  0.48163690  0.28003110    -0.79100
O74         O  0.56721897  0.58320584  0.20848237    -0.79100
O75         O  0.49859407  0.54376161  0.20346865    -0.79200
O76         O  0.45363380  0.48791184  0.33124005    -0.79100
O77         O  0.55526759  0.59096461  0.27526680    -0.79100
O78         O  0.42866872  0.47086187  0.20639964    -0.79200
Co79       Co  0.49002228  0.49646865  0.29419149     1.51500
Co80       Co  0.49956187  0.48858319  0.20359488     1.51700
Co81       Co  0.44301920  0.44731028  0.24967958     1.51600
Co82       Co  0.57304573  0.55478303  0.25082783     1.51500
O83         O  0.51439411  0.49434185  0.25139780    -1.41100
C84         C  0.54655577  0.58721000  0.30658071     1.10500
C85         C  0.43425877  0.46959907  0.17371975     1.10600
C86         C  0.42217980  0.48102380  0.31309802     1.10500
C87         C  0.53323372  0.57760151  0.19568109     1.10500
O88         O  0.86440329  0.59120090  0.46093512    -0.79100
O89         O  0.74176361  0.62491749  0.00079834    -0.79100
O90         O  0.73439524  0.56982873  0.44854986    -0.79100
O91         O  0.88251832  0.67738281  0.01240023    -0.79100
O92         O  0.68240130  0.54151357  0.48717350    -0.79200
O93         O  0.89377249  0.62413043  0.52356659    -0.79100
O94         O  0.80857881  0.68009584  0.00630587    -0.79100
O95         O  0.80679547  0.56785324  0.42892975    -0.79200
C96         C  0.84635370  0.58329930  0.43169191     1.10600
C97         C  0.76965013  0.66560974  0.99998792     1.10500
C98         C  0.69462459  0.55288429  0.45624867     1.10600
C99         C  0.90756824  0.66326114  0.01495973     1.10500
O100        O  0.81541370  0.55547643  0.05417811    -0.79100
O101        O  0.72609535  0.50353717  0.00394941    -0.79200
O102        O  0.79873974  0.51106051  0.48432208    -0.79100
O103        O  0.77454043  0.62751198  0.06691140    -0.79100
O104        O  0.72748113  0.55981652  0.05078724    -0.79200
O105        O  0.86137564  0.53776849  0.51117061    -0.79100
O106        O  0.84740887  0.62313156  0.07256469    -0.79100
O107        O  0.72968661  0.49312805  0.44819691    -0.79200
Co108      Co  0.83816504  0.57332788  0.50776245     1.51500
Co109      Co  0.74036245  0.56759363  0.00195053     1.51700
Co110      Co  0.77030993  0.54685837  0.46958413     1.51600
Co111      Co  0.82677312  0.64896627  0.03697847     1.51500
O112        O  0.80436901  0.59857968  0.00203958    -1.41100
C113        C  0.83557379  0.58338852  0.07722535     1.10500
C114        C  0.71408647  0.47778240  0.47759321     1.10600
C115        C  0.82849868  0.50614930  0.49727166     1.10500
C116        C  0.74120226  0.59023973  0.07228536     1.10500
O117        O  0.75238961  0.15003270  0.43932379    -0.79100
O118        O  0.87185186  0.22144985  0.98110873    -0.79100
O119        O  0.82215658  0.25341351  0.43670026    -0.79100
O120        O  0.79441417  0.12644084  0.04407638    -0.79100
O121        O  0.88434771  0.30066601  0.46094479    -0.79200
O122        O  0.77760422  0.11387749  0.48901469    -0.79100
O123        O  0.87032064  0.20752682  0.03674175    -0.79100
O124        O  0.73511728  0.19909924  0.43832333    -0.79200
C125        C  0.73475791  0.16745953  0.42404607     1.10600
C126        C  0.88858727  0.21539405  0.00752508     1.10500
C127        C  0.86085795  0.28649931  0.43427254     1.10600
C128        C  0.78652210  0.10304063  0.01725225     1.10500
O129        O  0.71743892  0.11344807  0.03652491    -0.79100
O130        O  0.82097119  0.29572774  0.99911258    -0.79200
O131        O  0.73049702  0.22118378  0.50800600    -0.79100
O132        O  0.82604532  0.24872723  0.06574753    -0.79100
O133        O  0.87914230  0.28356804  0.03072673    -0.79200
O134        O  0.69422287  0.15314732  0.48924927    -0.79100
O135        O  0.75379694  0.17158953  0.06927233    -0.79100
O136        O  0.77290436  0.28326746  0.45882256    -0.79200
Co137      Co  0.73945073  0.13672670  0.48884355     1.51500
Co138      Co  0.84275509  0.25373604  0.98839381     1.51700
Co139      Co  0.77713367  0.23612739  0.47563550     1.51600
Co140      Co  0.80990906  0.18939187  0.05097443     1.51500
O141        O  0.79022313  0.19700753  0.00349592    -1.41100
C142        C  0.72112992  0.13474365  0.06360132     1.10500
C143        C  0.79943832  0.30819118  0.48135104     1.10600
C144        C  0.69525869  0.18618546  0.50223445     1.10500
C145        C  0.86227230  0.28135522  0.05945784     1.10500
O146        O  0.28481543  0.84093939  0.45100753    -0.79100
O147        O  0.12313113  0.71849952  0.01683894    -0.79100
O148        O  0.19735488  0.75907212  0.43663763    -0.79100
O149        O  0.22269112  0.86228279  0.99730488    -0.79100
O150        O  0.15914223  0.69716794  0.46531869    -0.79200
O151        O  0.28752464  0.88192584  0.51208588    -0.79100
O152        O  0.14460719  0.78627793  0.00123237    -0.79100
O153        O  0.28007234  0.78409697  0.42481655    -0.79200
C154        C  0.29168214  0.82387502  0.42442942     1.10600
C155        C  0.11528034  0.74687366  0.00562088     1.10500
C156        C  0.16664351  0.71960385  0.43771173     1.10600
C157        C  0.26134815  0.89181062  0.00115224     1.10500
O158        O  0.28318654  0.81420272  0.05354209    -0.79100
O159        O  0.22256751  0.70343755  0.01740524    -0.79200
O160        O  0.30284846  0.78340118  0.49107025    -0.79100
O161        O  0.16392368  0.77026001  0.06962471    -0.79100
O162        O  0.18725378  0.72559845  0.06528388    -0.79200
O163        O  0.34124304  0.85413675  0.50219558    -0.79100
O164        O  0.24477986  0.84300601  0.06612831    -0.79100
O165        O  0.23447289  0.71265561  0.46284854    -0.79200
Co166      Co  0.28069709  0.82387710  0.50362370     1.51500
Co167      Co  0.17608192  0.71504194  0.01576549     1.51700
Co168      Co  0.24823428  0.77426620  0.46508971     1.51600
Co169      Co  0.19567024  0.81373322  0.03120191     1.51500
O170        O  0.21767211  0.77929252  0.00597715    -1.41100
C171        C  0.27251362  0.83335566  0.07458538     1.10500
C172        C  0.23337118  0.69355064  0.49031945     1.10600
C173        C  0.33888577  0.81808427  0.49903977     1.10500
C174        C  0.17002232  0.74144600  0.08253154     1.10500
O175        O  0.54520629  0.84079531  0.49388177    -0.79100
O176        O  0.59416894  0.71055132  0.03440543    -0.79100
O177        O  0.48522450  0.70941944  0.46697505    -0.79100
O178        O  0.59119391  0.82704429  0.07205657    -0.79100
O179        O  0.52022204  0.69714757  0.00717910    -0.79200
O180        O  0.61272412  0.88241382  0.03637378    -0.79100
O181        O  0.58199766  0.74862952  0.07026898    -0.79100
O182        O  0.51149934  0.77372335  0.51531999    -0.79200
C183        C  0.51352788  0.80936163  0.50949416     1.10600
C184        C  0.58184502  0.71452359  0.06354084     1.10500
C185        C  0.48523186  0.68518959  0.49043421     1.10600
C186        C  0.59448452  0.86252570  0.06385188     1.10500
O187        O  0.66759670  0.87717328  0.48693422    -0.79100
O188        O  0.57573169  0.68945215  0.46644860    -0.79200
O189        O  0.53225948  0.79110240  0.44483562    -0.79100
O190        O  0.66521063  0.78584757  0.03567745    -0.79100
O191        O  0.64576127  0.76917128  0.98120458    -0.79200
O192        O  0.60012843  0.83841206  0.44054802    -0.79100
O193        O  0.67504237  0.86844196  0.04214622    -0.79100
O194        O  0.56472437  0.73854731  0.44206054    -0.79200
Co195      Co  0.60627090  0.85578178  0.48968149     1.51500
Co196      Co  0.58464224  0.73785347  0.99270982     1.51700
Co197      Co  0.53940211  0.75641110  0.48175767     1.51600
Co198      Co  0.62624175  0.80649038  0.05236735     1.51500
O199        O  0.59430410  0.79638143  0.00679951    -1.41100
C200        C  0.68898483  0.89062770  0.01453541     1.10500
C201        C  0.57074785  0.70647189  0.43963611     1.10600
C202        C  0.56294467  0.82091264  0.42807365     1.10500
C203        C  0.67136802  0.77582843  0.00569686     1.10500
O204        O  0.13710786  0.43420707  0.46750712    -0.79100
O205        O  0.23681916  0.35375249  0.98494302    -0.79100
O206        O  0.23496601  0.40734913  0.42325786    -0.79100
O207        O  0.12617351  0.32422136  0.03033507    -0.79100
O208        O  0.28880284  0.42664660  0.45838802    -0.79200
O209        O  0.10921023  0.36006782  0.49566138    -0.79100
O210        O  0.20299399  0.32702304  0.03185845    -0.79100
O211        O  0.16220786  0.41080920  0.42784940    -0.79200
C212        C  0.13697506  0.42255659  0.43677750     1.10600
C213        C  0.22348956  0.32469551  0.00707756     1.10500
C214        C  0.27270749  0.41677948  0.42833176     1.10600
C215        C  0.09902439  0.32539960  0.01099999     1.10500
O216        O  0.12454895  0.42635191  0.03721329    -0.79100
O217        O  0.27732974  0.47388766  0.01415487    -0.79200
O218        O  0.21156994  0.49278634  0.46393480    -0.79100
O219        O  0.24761967  0.41325993  0.06145475    -0.79100
O220        O  0.29739982  0.41387479  0.02831674    -0.79200
O221        O  0.20629685  0.47771784  0.51869459    -0.79100
O222        O  0.16667111  0.40988357  0.06661817    -0.79100
O223        O  0.28191734  0.49024294  0.45990505    -0.79200
Co224      Co  0.15941408  0.41716986  0.50804873     1.51500
Co225      Co  0.25369340  0.41187016  0.00138017     1.51700
Co226      Co  0.22054310  0.44621667  0.44639320     1.51600
Co227      Co  0.18712021  0.37258647  0.04059151     1.51500
O228        O  0.19915914  0.40315119  0.98832685    -1.41100
C229        C  0.14106702  0.42462627  0.06536659     1.10500
C230        C  0.29608802  0.50080417  0.49032267     1.10600
C231        C  0.21625863  0.50503444  0.49480163     1.10500
C232        C  0.28503121  0.41863616  0.05737786     1.10500
O233        O  0.47965191  0.15053494  0.50898046    -0.79100
O234        O  0.45246044  0.27276598  0.06641500    -0.79100
O235        O  0.50589252  0.28446806  0.46077344    -0.79100
O236        O  0.39052755  0.15593673  0.06853587    -0.79100
O237        O  0.50866594  0.29725058  0.01549117    -0.79200
O238        O  0.45945502  0.19100307  0.05739288    -0.79100
O239        O  0.38335482  0.22732150  0.07245389    -0.79100
O240        O  0.50851615  0.21710164  0.48755561    -0.79200
C241        C  0.51233841  0.18540641  0.49904007     1.10600
C242        C  0.41967111  0.25605918  0.08467200     1.10500
C243        C  0.52718360  0.30399119  0.48720987     1.10600
C244        C  0.42865258  0.16761618  0.07710226     1.10500
O245        O  0.39597757  0.11898900  0.51681202    -0.79100
O246        O  0.44631477  0.29854002  0.46774331    -0.79200
O247        O  0.47696478  0.21192244  0.42357340    -0.79100
O248        O  0.34441152  0.20944877  0.00471689    -0.79100
O249        O  0.39106491  0.27723626  0.02104305    -0.79200
O250        O  0.43345425  0.15605316  0.45704580    -0.79100
O251        O  0.34829326  0.13436708  0.00071206    -0.79100
O252        O  0.41948189  0.23574857  0.43971552    -0.79200
Co253      Co  0.44759019  0.17799070  0.50828495     1.51500
Co254      Co  0.44894780  0.28277935  0.01738869     1.51700
Co255      Co  0.45826649  0.22271217  0.46513371     1.51600
Co256      Co  0.36974246  0.18355743  0.03410217     1.51500
O257        O  0.42638811  0.21890283  0.00800848    -1.41100
C258        C  0.35945352  0.10687620  0.00466259     1.10500
C259        C  0.42878896  0.27507084  0.44102879     1.10600
C260        C  0.45404594  0.17122713  0.42860778     1.10500
C261        C  0.35391846  0.24822885  0.01010730     1.10500
C262        C  0.32081988  0.25872312  0.00664551    -0.17500
C263        C  0.29290744  0.26732146  0.00588429     0.06600
C264        C  0.26158358  0.27953076  0.00624473     0.08400
C265        C  0.23905778  0.29501028  0.00680805    -0.18300
C266        C  0.44581637  0.64567004  0.49879076    -0.17500
C267        C  0.41094955  0.61294354  0.50152763     0.06600
C268        C  0.36963020  0.57476125  0.50058086     0.08400
C269        C  0.33514807  0.54164057  0.49704823    -0.18300
C270        C  0.27545107  0.93699424  0.99514386    -0.17500
C271        C  0.28989133  0.97583957  0.99302809     0.06600
C272        C  0.31010013  0.02197699  0.99372725     0.08400
C273        C  0.33057085  0.06123998  0.99707767    -0.18300
C274        C  0.24220159  0.65949647  0.49129779    -0.17500
C275        C  0.24414135  0.62756385  0.49564003     0.06600
C276        C  0.23974590  0.58680361  0.50085660     0.08400
C277        C  0.23092423  0.54964082  0.50156926    -0.18300
C278        C  0.37567776  0.81546183  0.50624995    -0.17500
C279        C  0.40727360  0.81428153  0.51175105     0.06600
C280        C  0.44482054  0.81333075  0.51597360     0.08400
C281        C  0.47684918  0.81212614  0.51589836    -0.18300
C282        C  0.78116646  0.06015306  0.01959471    -0.17500
C283        C  0.76902777  0.02152036  0.01941029     0.06600
C284        C  0.74810529  0.97500644  0.01783550     0.08400
C285        C  0.72473365  0.93549530  0.01617173    -0.18300
C286        C  0.05506290  0.28884402  0.00813906    -0.17500
C287        C  0.01643539  0.26408739  0.00652351     0.06600
C288        C  0.97066584  0.24041901  0.00557725     0.08400
C289        C  0.93223746  0.22512403  0.00573975    -0.18300
C290        C  0.65604041  0.18583880  0.50615536    -0.17500
C291        C  0.62397947  0.18748570  0.50611642     0.06600
C292        C  0.58646908  0.18962842  0.50400315     0.08400
C293        C  0.55363138  0.18969270  0.50164143    -0.18300
C294        C  0.07154033  0.73471605  0.00105620    -0.17500
C295        C  0.03438756  0.72377452  0.00089918     0.06600
C296        C  0.99040600  0.70841494  0.00389402     0.08400
C297        C  0.95245273  0.69108938  0.00832621    -0.18300
C298        C  0.75571485  0.69621244  0.99490970    -0.17500
C299        C  0.74204408  0.72045704  0.99467835     0.06600
C300        C  0.72310855  0.74621173  0.99729404     0.08400
C301        C  0.70292652  0.76388341  0.00084408    -0.18300
C302        C  0.80498036  0.34992417  0.48774442    -0.17500
C303        C  0.81089877  0.38582408  0.49161655     0.06600
C304        C  0.81815370  0.42813397  0.49454046     0.08400
C305        C  0.82366761  0.46410843  0.49603854    -0.18300
C306        C  0.68287521  0.43254725  0.48137328    -0.17500
C307        C  0.65115258  0.39700307  0.48327073     0.06600
C308        C  0.60959068  0.36033118  0.48441904     0.08400
C309        C  0.57221664  0.33316706  0.48532805    -0.18300
C310        C  0.42423104  0.27403178  0.11849815    -0.17500
C311        C  0.43443619  0.29704310  0.14366787     0.06600
C312        C  0.44952370  0.33003256  0.16913280     0.08400
C313        C  0.46133451  0.36139663  0.18749134    -0.18300
C314        C  0.45350578  0.37852532  0.33732268    -0.17500
C315        C  0.44296901  0.35019312  0.35875336     0.06600
C316        C  0.43167436  0.31934187  0.38572574     0.08400
C317        C  0.42622296  0.29626436  0.41032966    -0.18300
C318        C  0.71627385  0.58183539  0.10280781    -0.17500
C319        C  0.69021693  0.56883809  0.12552793     0.06600
C320        C  0.65652496  0.55071950  0.14960644     0.08400
C321        C  0.62669407  0.53626516  0.16905742    -0.18300
C322        C  0.66468918  0.54454689  0.42937343    -0.17500
C323        C  0.64249254  0.53403362  0.40408806     0.06600
C324        C  0.61890765  0.52139697  0.37322642     0.08400
C325        C  0.59877572  0.51384851  0.34698620    -0.18300
C326        C  0.53559501  0.60588984  0.16824247    -0.17500
C327        C  0.54295776  0.62881762  0.14318429     0.06600
C328        C  0.55536936  0.65592213  0.11356248     0.08400
C329        C  0.56739551  0.68086750  0.08940737    -0.18300
C330        C  0.57296802  0.69104051  0.40652587    -0.17500
C331        C  0.57192729  0.67513700  0.37923144     0.06600
C332        C  0.56657834  0.65095628  0.34942125     0.08400
C333        C  0.55865755  0.62456964  0.32731423    -0.18300
C334        C  0.40273349  0.46636841  0.15052649    -0.17500
C335        C  0.37464984  0.45964810  0.13093912     0.06600
C336        C  0.34172566  0.44752662  0.10703479     0.08400
C337        C  0.31476161  0.43475776  0.08511021    -0.18300
C338        C  0.29924116  0.42419388  0.39937048    -0.17500
C339        C  0.32308090  0.43713034  0.37530655     0.06600
C340        C  0.35382132  0.45575843  0.34919236     0.08400
C341        C  0.38360532  0.47036825  0.32995694    -0.18300
C342        C  0.92553142  0.54583048  0.15681886    -0.17500
C343        C  0.90173196  0.55222144  0.14005560     0.06600
C344        C  0.87427494  0.56202927  0.12240352     0.08400
C345        C  0.85348795  0.57170742  0.10477940    -0.18300
C346        C  0.87015839  0.58597021  0.40187663    -0.17500
C347        C  0.88811382  0.57857196  0.37967872     0.06600
C348        C  0.90750059  0.56400653  0.35668302     0.08400
C349        C  0.92428798  0.55101357  0.33784684    -0.18300
C350        C  0.92881157  0.39276609  0.16366865    -0.17500
C351        C  0.91333866  0.36760079  0.13955028     0.06600
C352        C  0.89770927  0.33963356  0.11011377     0.08400
C353        C  0.88355917  0.31485237  0.08567801    -0.18300
C354        C  0.91885959  0.38477868  0.32385554    -0.17500
C355        C  0.90286841  0.35752551  0.34634693     0.06600
C356        C  0.88828344  0.32919089  0.37530347     0.08400
C357        C  0.87654257  0.30790864  0.40154312    -0.18300
C358        C  0.13319258  0.44246445  0.09558639    -0.17500
C359        C  0.12345608  0.45882150  0.11797901     0.06600
C360        C  0.10786385  0.47709161  0.14161588     0.08400
C361        C  0.09013560  0.48968895  0.15999347    -0.18300
C362        C  0.07472900  0.47766114  0.34334945    -0.17500
C363        C  0.08822253  0.46238968  0.36348802     0.06600
C364        C  0.10090926  0.44337213  0.38864763     0.08400
C365        C  0.11410276  0.43022936  0.41089400    -0.18300
C366        C  0.15370104  0.72277361  0.11598484    -0.17500
C367        C  0.13808942  0.70076475  0.14153192     0.06600
C368        C  0.11700801  0.67024123  0.16859272     0.08400
C369        C  0.09526734  0.64150420  0.18893209    -0.18300
C370        C  0.14332062  0.69823557  0.40609980    -0.17500
C371        C  0.12611309  0.67906936  0.37938049     0.06600
C372        C  0.10595324  0.65478835  0.34854046     0.08400
C373        C  0.08660042  0.63182016  0.32381755    -0.18300
C374        C  0.37519204  0.90464574  0.18214275    -0.17500
C375        C  0.34780598  0.88334987  0.16056942     0.06600
C376        C  0.31809551  0.86269068  0.13271712     0.08400
C377        C  0.29534210  0.84794192  0.10726315    -0.18300
C378        C  0.31194925  0.84875849  0.39400883    -0.17500
C379        C  0.33127305  0.86482807  0.36778971     0.06600
C380        C  0.35665072  0.88242385  0.33809111     0.08400
C381        C  0.38129371  0.90122836  0.31494956    -0.18300
C382        C  0.57734436  0.88043758  0.08656971    -0.17500
C383        C  0.56082298  0.89210126  0.10675026     0.06600
C384        C  0.54153172  0.90504195  0.13101399     0.08400
C385        C  0.52748472  0.91910170  0.15147088    -0.18300
C386        C  0.55438595  0.83886433  0.39799369    -0.17500
C387        C  0.54468926  0.85621535  0.37607260     0.06600
C388        C  0.53291936  0.87921926  0.35327985     0.08400
C389        C  0.52457479  0.90166445  0.33566104    -0.18300
C390        C  0.68910542  0.11652941  0.08973628    -0.17500
C391        C  0.66600607  0.10534868  0.11433744     0.06600
C392        C  0.64049550  0.09278997  0.14407797     0.08400
C393        C  0.61686547  0.07802780  0.16830831    -0.18300
C394        C  0.70992589  0.14788525  0.39291192    -0.17500
C395        C  0.68558242  0.12819566  0.36919081     0.06600
C396        C  0.65432651  0.10260122  0.34350706     0.08400
C397        C  0.62582614  0.07897550  0.32353500    -0.18300
C398        C  0.46366193  0.07876956  0.16283017    -0.17500
C399        C  0.45524416  0.10146701  0.14585745     0.06600
C400        C  0.44465990  0.12742704  0.12592504     0.08400
C401        C  0.43631030  0.14781306  0.10608867    -0.18300
C402        C  0.47125668  0.06989058  0.34415602    -0.17500
C403        C  0.46481839  0.09169802  0.36343449     0.06600
C404        C  0.45693800  0.11815698  0.38456461     0.08400
C405        C  0.45274461  0.14183917  0.40349959    -0.20100
O406        O  0.44651987  0.93080342  0.78628347    -0.79100
O407        O  0.50675308  0.96891664  0.66079209    -0.79100
O408        O  0.41044001  0.96919833  0.71498602    -0.79100
O409        O  0.52054189  0.93377632  0.78327494    -0.79100
O410        O  0.44346177  0.93442405  0.70769039    -0.79200
O411        O  0.51120943  0.95847144  0.83281669    -0.79100
O412        O  0.51695538  0.93825414  0.70705419    -0.79100
O413        O  0.41346663  0.96641968  0.78486958    -0.79200
C414        C  0.41405136  0.93266678  0.79270615     1.10600
C415        C  0.51668012  0.94306154  0.67392329     1.10500
C416        C  0.41036775  0.93616389  0.70383709     1.10600
C417        C  0.51888115  0.93285492  0.81663952     1.10500
O418        O  0.55327693  0.04195128  0.80857686    -0.79100
O419        O  0.47041924  0.01847777  0.67536292    -0.79200
O420        O  0.47859820  0.05752509  0.78722333    -0.79100
O421        O  0.58851572  0.02613267  0.71207221    -0.79100
O422        O  0.54901765  0.04834950  0.69095003    -0.79200
O423        O  0.47546234  0.01055613  0.82521480    -0.79100
O424        O  0.59211204  0.02441540  0.78081211    -0.79100
O425        O  0.47619784  0.06144015  0.71737171    -0.79200
Co426      Co  0.50181418  0.98603801  0.79504691     1.51500
Co427      Co  0.49829984  0.99121766  0.70151672     1.51700
Co428      Co  0.44896641  0.01349565  0.75096597     1.51600
Co429      Co  0.54782532  0.98338534  0.74640155     1.51500
O430        O  0.50256122  0.00776311  0.74924234    -1.41100
C431        C  0.58918774  0.04788405  0.80298978     1.10500
C432        C  0.47123004  0.05221538  0.68586392     1.10600
C433        C  0.47613662  0.04532061  0.81797586     1.10500
C434        C  0.58422758  0.05137688  0.69254741     1.10500
O435        O  0.97817993  0.53733938  0.82401725    -0.79100
O436        O  0.95700188  0.46293958  0.68645529    -0.79100
O437        O  0.94009622  0.53720755  0.71290465    -0.79100
O438        O  0.97039616  0.41890031  0.78105195    -0.79100
O439        O  0.98577992  0.54340735  0.67398096    -0.79200
O440        O  0.94843027  0.45697254  0.80543502    -0.79100
O441        O  0.97495900  0.42179633  0.71178705    -0.79100
O442        O  0.93645342  0.53536541  0.78276494    -0.79200
C443        C  0.94633260  0.53934410  0.81417743     1.10600
C444        C  0.95330309  0.42659319  0.68905545     1.10500
C445        C  0.95134198  0.54119485  0.68200559     1.10600
C446        C  0.94558277  0.42114942  0.80155997     1.10500
O447        O  0.02583552  0.49895513  0.83611774    -0.79100
O448        O  0.06447669  0.57130324  0.71323239    -0.79200
O449        O  0.02656622  0.60194076  0.78667623    -0.79100
O450        O  0.06195939  0.49578940  0.71300887    -0.79100
O451        O  0.03852425  0.50887413  0.66404810    -0.79200
O452        O  0.05963179  0.56683935  0.79179680    -0.79100
O453        O  0.05621063  0.49255912  0.78895475    -0.79100
O454        O  0.02925211  0.60441608  0.71621173    -0.79200
Co455      Co  0.00416927  0.51021060  0.79616690     1.51500
Co456      Co  0.01076891  0.51510087  0.70238822     1.51700
Co457      Co  0.98329267  0.56526607  0.74946525     1.51600
Co458      Co  0.01291466  0.46396634  0.74863852     1.51500
O459        O  0.98850926  0.50994924  0.74836764    -1.41100
C460        C  0.05126777  0.49011394  0.82202931     1.10500
C461        C  0.06274273  0.60497871  0.70840889     1.10600
C462        C  0.05790941  0.60012390  0.79825170     1.10500
C463        C  0.06239387  0.49846354  0.67966835     1.10500
O464        O  0.49634697  0.45160412  0.81858781    -0.79100
O465        O  0.55588915  0.51605190  0.67897123    -0.79100
O466        O  0.44106044  0.39999582  0.72181772    -0.79100
O467        O  0.59224184  0.53917098  0.79384498    -0.79100
O468        O  0.50356015  0.43627746  0.69960308    -0.79200
O469        O  0.53277747  0.48794401  0.82041872    -0.79100
O470        O  0.59757104  0.52696812  0.72381647    -0.79100
O471        O  0.43856668  0.40847801  0.78942525    -0.79200
C472        C  0.46377929  0.41381532  0.81379221     1.10600
C473        C  0.59141727  0.52422465  0.69159929     1.10500
C474        C  0.46984056  0.40052510  0.70463360     1.10600
C475        C  0.57366304  0.51249287  0.81835085     1.10500
O476        O  0.52753609  0.55035005  0.82026225    -0.79100
O477        O  0.46822256  0.47368669  0.66200601    -0.79200
O478        O  0.42476879  0.48164249  0.78003081    -0.79100
O479        O  0.56721974  0.58320169  0.70848280    -0.79100
O480        O  0.49859472  0.54375996  0.70346735    -0.79200
O481        O  0.45363154  0.48791146  0.83123995    -0.79100
O482        O  0.55527071  0.59096170  0.77526858    -0.79100
O483        O  0.42866689  0.47086436  0.70639933    -0.79200
Co484      Co  0.49001970  0.49646591  0.79419157     1.51500
Co485      Co  0.49955824  0.48857926  0.70359478     1.51700
Co486      Co  0.44301448  0.44731137  0.74967968     1.51600
Co487      Co  0.57304453  0.55477711  0.75082816     1.51500
O488        O  0.51439047  0.49433821  0.75139777    -1.41100
C489        C  0.54655787  0.58720620  0.80658241     1.10500
C490        C  0.43425561  0.46959781  0.67371967     1.10600
C491        C  0.42217937  0.48102851  0.81309777     1.10500
C492        C  0.53323552  0.57759868  0.69568021     1.10500
O493        O  0.86440461  0.59120450  0.96093166    -0.79100
O494        O  0.74175992  0.62491452  0.50079971    -0.79100
O495        O  0.73439641  0.56983141  0.94854798    -0.79100
O496        O  0.88251509  0.67738250  0.51240091    -0.79100
O497        O  0.68240302  0.54151709  0.98717186    -0.79200
O498        O  0.89377430  0.62412968  0.02356394    -0.79100
O499        O  0.80857493  0.68009366  0.50630395    -0.79100
O500        O  0.80679569  0.56785459  0.92892729    -0.79200
C501        C  0.84635412  0.58330150  0.93168883     1.10600
C502        C  0.76964594  0.66560699  0.49998762     1.10500
C503        C  0.69462571  0.55288683  0.95624690     1.10600
C504        C  0.90756555  0.66326164  0.51496194     1.10500
O505        O  0.81541277  0.55547862  0.55418264    -0.79100
O506        O  0.72609524  0.50353569  0.50395188    -0.79200
O507        O  0.79873967  0.51106137  0.98431934    -0.79100
O508        O  0.77453642  0.62751192  0.56691099    -0.79100
O509        O  0.72748027  0.55981459  0.55078899    -0.79200
O510        O  0.86137775  0.53777054  0.01116478    -0.79100
O511        O  0.84740645  0.62313491  0.57256663    -0.79100
O512        O  0.72968684  0.49313062  0.94819425    -0.79200
Co513      Co  0.83816657  0.57332898  0.00775849     1.51500
Co514      Co  0.74036079  0.56759142  0.50195224     1.51700
Co515      Co  0.77031063  0.54686017  0.96958195     1.51600
Co516      Co  0.82676990  0.64896653  0.53697862     1.51500
O517        O  0.80436739  0.59857831  0.50204145    -1.41100
C518        C  0.83557219  0.58339241  0.57722908     1.10500
C519        C  0.71408651  0.47778443  0.97759033     1.10600
C520        C  0.82849969  0.50615100  0.99726771     1.10500
C521        C  0.74119982  0.59023859  0.57228615     1.10500
O522        O  0.75238930  0.15003894  0.93932180    -0.79100
O523        O  0.87185062  0.22144797  0.48111087    -0.79100
O524        O  0.82215569  0.25341783  0.93670005    -0.79100
O525        O  0.79441407  0.12643944  0.54408064    -0.79100
O526        O  0.88434911  0.30066799  0.96094306    -0.79200
O527        O  0.77760410  0.11388149  0.98901029    -0.79100
O528        O  0.87031961  0.20752587  0.53674413    -0.79100
O529        O  0.73511660  0.19910510  0.93832397    -0.79200
C530        C  0.73475715  0.16746613  0.92404541     1.10600
C531        C  0.88858598  0.21539244  0.50752733     1.10500
C532        C  0.86085788  0.28650195  0.93427152     1.10600
C533        C  0.78652211  0.10303799  0.51725732     1.10500
O534        O  0.71743801  0.11344517  0.53652713    -0.79100
O535        O  0.82096768  0.29572424  0.49911275    -0.79200
O536        O  0.73049865  0.22118749  0.00800809    -0.79100
O537        O  0.82604265  0.24872579  0.56574827    -0.79100
O538        O  0.87913990  0.28356641  0.53072781    -0.79200
O539        O  0.69422376  0.15315199  0.98924929    -0.79100
O540        O  0.75379534  0.17158736  0.56927402    -0.79100
O541        O  0.77290472  0.28327161  0.95882522    -0.79200
Co542      Co  0.73945108  0.13673102  0.98884143     1.51500
Co543      Co  0.84275322  0.25373347  0.48839514     1.51700
Co544      Co  0.77713412  0.23613140  0.97563638     1.51600
Co545      Co  0.80990781  0.18939037  0.55097657     1.51500
O546        O  0.79022196  0.19700422  0.50349731    -1.41100
C547        C  0.72112883  0.13474093  0.56360337     1.10500
C548        C  0.79944080  0.30819488  0.98135269     1.10600
C549        C  0.69525957  0.18618966  0.00223589     1.10500
C550        C  0.86226922  0.28135427  0.55945840     1.10500
O551        O  0.28481588  0.84093652  0.95100405    -0.79100
O552        O  0.12312784  0.71850136  0.51684136    -0.79100
O553        O  0.19735919  0.75906891  0.93663642    -0.79100
O554        O  0.22268945  0.86228428  0.49730977    -0.79100
O555        O  0.15914693  0.69716524  0.96531808    -0.79200
O556        O  0.28752672  0.88192642  0.01208115    -0.79100
O557        O  0.14460475  0.78628054  0.50123650    -0.79100
O558        O  0.28007669  0.78409419  0.92481616    -0.79200
C559        C  0.29168333  0.82387129  0.92442687     1.10600
C560        C  0.11527753  0.74687633  0.50562458     1.10500
C561        C  0.16664802  0.71960066  0.93771089     1.10600
C562        C  0.26134673  0.89181106  0.50115696     1.10500
O563        O  0.28318176  0.81419882  0.55354472    -0.79100
O564        O  0.22256308  0.70343789  0.51740441    -0.79200
O565        O  0.30285291  0.78340201  0.99107033    -0.79100
O566        O  0.16392088  0.77025962  0.56962759    -0.79100
O567        O  0.18725066  0.72559804  0.56528488    -0.79200
O568        O  0.34124618  0.85413866  0.00219117    -0.79100
O569        O  0.24477771  0.84300453  0.56613223    -0.79100
O570        O  0.23447843  0.71265457  0.96284949    -0.79200
Co571      Co  0.28070010  0.82387771  0.00362065     1.51500
Co572      Co  0.17607799  0.71504297  0.51576635     1.51700
Co573      Co  0.24823856  0.77426466  0.96508903     1.51600
Co574      Co  0.19566796  0.81373389  0.53120572     1.51500
O575        O  0.21766868  0.77929342  0.50597879    -1.41100
C576        C  0.27251029  0.83335229  0.57458867     1.10500
C577        C  0.23337728  0.69355085  0.99032089     1.10600
C578        C  0.33888999  0.81808653  0.99903773     1.10500
C579        C  0.17001953  0.74144523  0.58253343     1.10500
O580        O  0.54520919  0.84079670  0.99388033    -0.79100
O581        O  0.59416733  0.71054886  0.53440240    -0.79100
O582        O  0.48522487  0.70941908  0.96697849    -0.79100
O583        O  0.59118637  0.82703703  0.57205778    -0.79100
O584        O  0.52022130  0.69714578  0.50717466    -0.79200
O585        O  0.61271923  0.88240937  0.53637751    -0.79100
O586        O  0.58199221  0.74862296  0.57026729    -0.79100
O587        O  0.51150280  0.77372613  0.01532132    -0.79200
C588        C  0.51353147  0.80936423  0.00949429     1.10600
C589        C  0.58184208  0.71451857  0.56353808     1.10500
C590        C  0.48523246  0.68519034  0.99043851     1.10600
C591        C  0.59447739  0.86251893  0.56385422     1.10500
O592        O  0.66759880  0.87717348  0.98692949    -0.79100
O593        O  0.57572876  0.68944863  0.96645294    -0.79200
O594        O  0.53225944  0.79110019  0.94483610    -0.79100
O595        O  0.66520753  0.78584569  0.53567918    -0.79100
O596        O  0.64576218  0.76917434  0.48120514    -0.79200
O597        O  0.60012826  0.83840913  0.94054602    -0.79100
O598        O  0.67503725  0.86843837  0.54215096    -0.79100
O599        O  0.56472302  0.73854351  0.94206238    -0.79200
Co600      Co  0.60627330  0.85578249  0.98967866     1.51500
Co601      Co  0.58464226  0.73785404  0.49270788     1.51700
Co602      Co  0.53940332  0.75641101  0.98175913     1.51600
Co603      Co  0.62623653  0.80648583  0.55236891     1.51500
O604        O  0.59430154  0.79637996  0.50680010    -1.41100
C605        C  0.68898138  0.89062558  0.51454093     1.10500
C606        C  0.57074501  0.70646687  0.93963953     1.10600
C607        C  0.56294383  0.82090918  0.92807285     1.10500
C608        C  0.67136724  0.77582940  0.50569829     1.10500
O609        O  0.13710833  0.43420751  0.96750984    -0.79100
O610        O  0.23681684  0.35375104  0.48494161    -0.79100
O611        O  0.23496583  0.40734932  0.92325905    -0.79100
O612        O  0.12617066  0.32422094  0.53033314    -0.79100
O613        O  0.28880370  0.42664805  0.95838826    -0.79200
O614        O  0.10921138  0.36006892  0.99566545    -0.79100
O615        O  0.20299020  0.32702095  0.53185637    -0.79100
O616        O  0.16220726  0.41080867  0.92785201    -0.79200
C617        C  0.13697492  0.42255669  0.93678017     1.10600
C618        C  0.22348634  0.32469355  0.50707581     1.10500
C619        C  0.27270791  0.41678119  0.92833210     1.10600
C620        C  0.09902241  0.32539891  0.51099696     1.10500
O621        O  0.12454605  0.42635004  0.53720977    -0.79100
O622        O  0.27732853  0.47388626  0.51415447    -0.79200
O623        O  0.21157007  0.49278644  0.96393665    -0.79100
O624        O  0.24761633  0.41325736  0.56145363    -0.79100
O625        O  0.29739669  0.41387162  0.52831638    -0.79200
O626        O  0.20629901  0.47771879  0.01869651    -0.79100
O627        O  0.16666866  0.40988331  0.56661573    -0.79100
O628        O  0.28191774  0.49024388  0.95990545    -0.79200
Co629      Co  0.15941580  0.41717100  0.00805142     1.51500
Co630      Co  0.25369155  0.41186867  0.50137924     1.51700
Co631      Co  0.22054306  0.44621682  0.94639467     1.51600
Co632      Co  0.18711730  0.37258525  0.54058960     1.51500
O633        O  0.19915796  0.40315058  0.48832500    -1.41100
C634        C  0.14106407  0.42462542  0.56536342     1.10500
C635        C  0.29608914  0.50080524  0.99032296     1.10600
C636        C  0.21626088  0.50503514  0.99480337     1.10500
C637        C  0.28502718  0.41863184  0.55737747     1.10500
O638        O  0.47965165  0.15053404  0.00897563    -0.79100
O639        O  0.45245240  0.27276099  0.56641985    -0.79100
O640        O  0.50589112  0.28446630  0.96076623    -0.79100
O641        O  0.39052156  0.15593230  0.56853602    -0.79100
O642        O  0.50866319  0.29724981  0.51549879    -0.79200
O643        O  0.45945014  0.19100066  0.55739689    -0.79100
O644        O  0.38334625  0.22731574  0.57245447    -0.79100
O645        O  0.50851590  0.21710151  0.98755209    -0.79200
C646        C  0.51233862  0.18540618  0.99903609     1.10600
C647        C  0.41966126  0.25605320  0.58467476     1.10500
C648        C  0.52718419  0.30399094  0.98720145     1.10600
C649        C  0.42864608  0.16761133  0.57710412     1.10500
O650        O  0.39597801  0.11898933  0.01681186    -0.79100
O651        O  0.44631315  0.29853763  0.96773827    -0.79200
O652        O  0.47696204  0.21191877  0.92357007    -0.79100
O653        O  0.34440945  0.20944696  0.50471525    -0.79100
O654        O  0.39106076  0.27723358  0.52104471    -0.79200
O655        O  0.43345047  0.15605100  0.95704324    -0.79100
O656        O  0.34829367  0.13436683  0.50070965    -0.79100
O657        O  0.41947947  0.23574474  0.93971242    -0.79200
Co658      Co  0.44759046  0.17799035  0.00828157     1.51500
Co659      Co  0.44894462  0.28277798  0.51739345     1.51700
Co660      Co  0.45826572  0.22271062  0.96513033     1.51600
Co661      Co  0.36973864  0.18355456  0.53410151     1.51500
O662        O  0.42638670  0.21890221  0.50801114    -1.41100
C663        C  0.35945390  0.10687609  0.50466120     1.10500
C664        C  0.42878585  0.27506686  0.94102482     1.10600
C665        C  0.45404170  0.17122380  0.92860490     1.10500
C666        C  0.35391522  0.24822645  0.51010690     1.10500
C667        C  0.32081622  0.25872020  0.50664433    -0.17500
C668        C  0.29290349  0.26731832  0.50588265     0.06600
C669        C  0.26157960  0.27952775  0.50624283     0.08400
C670        C  0.23905408  0.29500777  0.50680617    -0.18300
C671        C  0.44581737  0.64567078  0.99879527    -0.17500
C672        C  0.41095061  0.61294385  0.00153107     0.06600
C673        C  0.36963162  0.57476155  0.00058231     0.08400
C674        C  0.33514947  0.54164115  0.99704839    -0.18300
C675        C  0.27545095  0.93699461  0.49514779    -0.17500
C676        C  0.28989167  0.97583976  0.49303045     0.06600
C677        C  0.31010064  0.02197704  0.49372740     0.08400
C678        C  0.33057143  0.06124001  0.49707650    -0.18300
C679        C  0.24221034  0.65949860  0.99130039    -0.17500
C680        C  0.24415127  0.62756678  0.99564273     0.06600
C681        C  0.23975461  0.58680594  0.00085880     0.08400
C682        C  0.23093017  0.54964236  0.00157099    -0.18300
C683        C  0.37568279  0.81546590  0.00624853    -0.17500
C684        C  0.40727863  0.81428603  0.01175022     0.06600
C685        C  0.44482519  0.81333490  0.01597354     0.08400
C686        C  0.47685344  0.81212962  0.01589869    -0.18300
C687        C  0.78116625  0.06015037  0.51960165    -0.17500
C688        C  0.76902696  0.02151757  0.51941828     0.06600
C689        C  0.74810339  0.97500356  0.51784358     0.08400
C690        C  0.72473086  0.93549263  0.51617901    -0.18300
C691        C  0.05506097  0.28884355  0.50813633    -0.17500
C692        C  0.01643358  0.26408645  0.50652211     0.06600
C693        C  0.97066418  0.24041744  0.50557785     0.08400
C694        C  0.93223583  0.22512213  0.50574169    -0.18300
C695        C  0.65604261  0.18584340  0.00615686    -0.17500
C696        C  0.62398024  0.18748961  0.00611697     0.06600
C697        C  0.58647022  0.18963043  0.00400180     0.08400
C698        C  0.55363093  0.18969328  0.00163849    -0.18300
C699        C  0.07153776  0.73471950  0.50106084    -0.17500
C700        C  0.03438511  0.72377806  0.50090412     0.06600
C701        C  0.99040349  0.70841797  0.50389851     0.08400
C702        C  0.95245012  0.69109123  0.50832983    -0.18300
C703        C  0.75570995  0.69620926  0.49491006    -0.17500
C704        C  0.74204030  0.72045491  0.49467952     0.06600
C705        C  0.72310660  0.74621127  0.49729589     0.08400
C706        C  0.70292560  0.76388408  0.50084599    -0.18300
C707        C  0.80498412  0.34992788  0.98774684    -0.17500
C708        C  0.81090233  0.38582746  0.99161838     0.06600
C709        C  0.81815576  0.42813661  0.99454010     0.08400
C710        C  0.82366852  0.46411038  0.99603604    -0.18300
C711        C  0.68287504  0.43254912  0.98136942    -0.17500
C712        C  0.65115255  0.39700459  0.98326421     0.06600
C713        C  0.60959082  0.36033192  0.98440945     0.08400
C714        C  0.57221701  0.33316714  0.98531762    -0.18300
C715        C  0.42421756  0.27402456  0.61850090    -0.17500
C716        C  0.43442079  0.29703542  0.64367078     0.06600
C717        C  0.44950820  0.33002493  0.66913558     0.08400
C718        C  0.46132070  0.36138977  0.68749368    -0.18300
C719        C  0.45349575  0.37852007  0.83732038    -0.17500
C720        C  0.44295927  0.35018679  0.85874997     0.06600
C721        C  0.43166641  0.31933512  0.88572168     0.08400
C722        C  0.42621702  0.29625824  0.91032549    -0.18300
C723        C  0.71627131  0.58183383  0.60280852    -0.17500
C724        C  0.69021368  0.56883468  0.62552832     0.06600
C725        C  0.65652122  0.55071376  0.64960624     0.08400
C726        C  0.62668980  0.53625782  0.66905701    -0.18300
C727        C  0.66468947  0.54454688  0.92937149    -0.17500
C728        C  0.64249129  0.53403018  0.90408681     0.06600
C729        C  0.61890409  0.52138952  0.87322616     0.08400
C730        C  0.59877069  0.51383894  0.84698640    -0.18300
C731        C  0.53559889  0.60588677  0.66824053    -0.17500
C732        C  0.54296120  0.62881331  0.64318159     0.06600
C733        C  0.55537084  0.65591670  0.61355919     0.08400
C734        C  0.56739482  0.68086189  0.58940391    -0.18300
C735        C  0.57296460  0.69103310  0.90653005    -0.17500
C736        C  0.57192516  0.67512906  0.87923612     0.06600
C737        C  0.56657891  0.65094987  0.84942543     0.08400
C738        C  0.55865992  0.62456511  0.82731714    -0.18300
C739        C  0.40272941  0.46636454  0.65052633    -0.17500
C740        C  0.37464447  0.45964128  0.63093949     0.06600
C741        C  0.34171967  0.44751825  0.60703558     0.08400
C742        C  0.31475618  0.43475041  0.58511072    -0.18300
C743        C  0.29924178  0.42419890  0.89937016    -0.17500
C744        C  0.32308129  0.43713784  0.87530601     0.06600
C745        C  0.35382160  0.45576733  0.84919174     0.08400
C746        C  0.38360567  0.47037648  0.82995633    -0.18300
C747        C  0.92553069  0.54583615  0.65682252    -0.17500
C748        C  0.90173122  0.55222870  0.64006078     0.06600
C749        C  0.87427396  0.56203681  0.62240942     0.08400
C750        C  0.85348649  0.57171373  0.60478460    -0.18300
C751        C  0.87015797  0.58597095  0.90187362    -0.17500
C752        C  0.88811297  0.57857047  0.87967680     0.06600
C753        C  0.90749915  0.56400241  0.85668317     0.08400
C754        C  0.92428636  0.55100786  0.83784830    -0.18300
C755        C  0.92880929  0.39276964  0.66366577    -0.17500
C756        C  0.91333509  0.36760411  0.63954776     0.06600
C757        C  0.89770498  0.33963573  0.61011215     0.08400
C758        C  0.88355486  0.31485288  0.58567740    -0.18300
C759        C  0.91885902  0.38477395  0.82385104    -0.17500
C760        C  0.90286778  0.35752165  0.84634297     0.06600
C761        C  0.88828289  0.32918934  0.87530081     0.08400
C762        C  0.87654218  0.30790939  0.90154149    -0.18300
C763        C  0.13318936  0.44246469  0.59558248    -0.17500
C764        C  0.12345297  0.45882286  0.61797440     0.06600
C765        C  0.10786146  0.47709396  0.64161108     0.08400
C766        C  0.09013403  0.48969192  0.65998925    -0.18300
C767        C  0.07472977  0.47765768  0.84334730    -0.17500
C768        C  0.08822353  0.46238773  0.86348719     0.06600
C769        C  0.10090998  0.44337189  0.88864884     0.08400
C770        C  0.11410288  0.43022985  0.91089639    -0.18300
C771        C  0.15369884  0.72277250  0.61598671    -0.17500
C772        C  0.13808732  0.70076456  0.64153412     0.06600
C773        C  0.11700594  0.67024237  0.66859561     0.08400
C774        C  0.09526535  0.64150597  0.68893533    -0.18300
C775        C  0.14332456  0.69823211  0.90609937    -0.17500
C776        C  0.12611587  0.67906586  0.87938036     0.06600
C777        C  0.10595427  0.65478486  0.84854089     0.08400
C778        C  0.08659992  0.63181636  0.82381851    -0.18300
C779        C  0.37519305  0.90464124  0.68214361    -0.17500
C780        C  0.34780622  0.88334478  0.66057088     0.06600
C781        C  0.31809422  0.86268565  0.63271956     0.08400
C782        C  0.29533956  0.84793742  0.60726617    -0.18300
C783        C  0.31194735  0.84875269  0.89400509    -0.17500
C784        C  0.33126961  0.86482136  0.86778525     0.06600
C785        C  0.35664696  0.88241715  0.83808684     0.08400
C786        C  0.38129083  0.90122282  0.81494613    -0.18300
C787        C  0.57733577  0.88042911  0.58657171    -0.17500
C788        C  0.56081441  0.89209286  0.60675200     0.06600
C789        C  0.54152487  0.90503481  0.63101589     0.08400
C790        C  0.52748045  0.91909657  0.65147312    -0.18300
C791        C  0.55438379  0.83885957  0.89799281    -0.17500
C792        C  0.54468596  0.85620990  0.87607217     0.06600
C793        C  0.53291524  0.87921391  0.85328029     0.08400
C794        C  0.52457087  0.90165979  0.83566243    -0.18300
C795        C  0.68910465  0.11652626  0.58973845    -0.17500
C796        C  0.66600544  0.10534530  0.61433973     0.06600
C797        C  0.64049537  0.09278703  0.64408043     0.08400
C798        C  0.61686569  0.07802542  0.66831100    -0.18300
C799        C  0.70992449  0.14789243  0.89291116    -0.17500
C800        C  0.68558110  0.12820149  0.86919059     0.06600
C801        C  0.65432507  0.10260367  0.84350747     0.08400
C802        C  0.62582494  0.07897545  0.82353648    -0.18300
C803        C  0.46365856  0.07876412  0.66282983    -0.17500
C804        C  0.45523845  0.10145967  0.64585685     0.06600
C805        C  0.44465194  0.12741843  0.62592489     0.08400
C806        C  0.43630183  0.14780504  0.60608955    -0.18300
C807        C  0.47125229  0.06988617  0.84415540    -0.17500
C808        C  0.46481283  0.09169345  0.86343288     0.06600
C809        C  0.45693162  0.11815241  0.88456219     0.08400
C810        C  0.45273847  0.14183480  0.90349689    -0.20100
loop_ 
_geom_bond_atom_site_label_1 
_geom_bond_atom_site_label_2 
_geom_bond_distance 
_geom_bond_site_symmetry_2 
_ccdc_geom_bond_type 
O1            C9   1.260       .  A
O1          Co21   1.987       .  S
O2           C10   1.269       .  A
O2          Co22   1.882       .  S
O3           C11   1.267       .  A
O3          Co23   2.029   1_565  S
O4           C12   1.300       .  A
O4          Co24   2.090       .  S
O5           C11   1.260       .  A
O5          Co22   1.994       .  S
O6           C12   1.270       .  A
O6          Co21   1.896       .  S
O7           C10   1.300       .  A
O7          Co24   2.079       .  S
O8            C9   1.262       .  A
O8          Co23   2.000   1_565  S
C9          C381   1.435       .  S
C10         C385   1.430       .  S
C11         C374   1.455       .  S
C12         C389   1.445       .  S
O13          C26   1.245       .  A
O13         Co21   1.973   1_545  S
O14          C27   1.269       .  A
O14         Co22   2.019   1_545  S
O15          C28   1.260       .  A
O15         Co23   1.966       .  S
O16          C29   1.252       .  A
O16         Co24   1.998   1_545  S
O17          C29   1.244       .  A
O17         Co22   1.962   1_545  S
O18          C28   1.269       .  A
O18         Co21   2.010   1_545  S
O19          C26   1.256       .  A
O19         Co24   2.018   1_545  S
O20          C27   1.258       .  A
O20         Co23   1.968       .  S
Co21         O25   1.936   1_565  S
Co22         O25   1.933   1_565  S
Co23         O25   2.091       .  S
Co24         O25   2.260   1_565  S
C26         C397   1.452       .  S
C27         C398   1.435       .  S
C28         C402   1.426       .  S
C29         C393   1.433       .  S
O30          C38   1.267       .  A
O30         Co50   2.016   1_655  S
O31          C39   1.246       .  A
O31         Co51   1.976   1_655  S
O32          C40   1.259       .  A
O32         Co52   1.962       .  S
O33          C41   1.254       .  A
O33         Co53   2.005   1_655  S
O34          C40   1.271       .  A
O34         Co51   2.014   1_655  S
O35          C41   1.248       .  A
O35         Co50   1.971   1_655  S
O36          C39   1.255       .  A
O36         Co53   2.015   1_655  S
O37          C38   1.258       .  A
O37         Co52   1.973       .  S
C38         C349   1.437       .  S
C39         C350   1.453       .  S
C40         C342   1.427       .  S
C41         C354   1.444       .  S
O42          C55   1.267       .  A
O42         Co50   1.876       .  S
O43          C56   1.260       .  A
O43         Co51   1.990       .  S
O44          C57   1.267       .  A
O44         Co52   2.033   1_455  S
O45          C58   1.300       .  A
O45         Co53   2.087       .  S
O46          C58   1.271       .  A
O46         Co51   1.897       .  S
O47          C57   1.260       .  A
O47         Co50   1.994       .  S
O48          C55   1.298       .  A
O48         Co53   2.073       .  S
O49          C56   1.263       .  A
O49         Co52   2.010   1_455  S
Co50         O54   1.939   1_455  S
Co51         O54   1.943   1_455  S
Co52         O54   2.100       .  S
Co53         O54   2.261   1_455  S
C55         C362   1.422       .  S
C56         C369   1.445       .  S
C57         C373   1.459       .  S
C58         C361   1.446       .  S
O59          C67   1.267       .  A
O59         Co79   1.984       .  S
O60          C68   1.273       .  A
O60         Co80   2.018       .  S
O61          C69   1.251       .  A
O61         Co81   1.993       .  S
O62          C70   1.269       .  A
O62         Co82   1.999       .  S
O63          C69   1.248       .  A
O63         Co80   1.972       .  S
O64          C70   1.287       .  A
O64         Co79   2.021       .  S
O65          C68   1.266       .  A
O65         Co82   1.977       .  S
O66          C67   1.262       .  A
O66         Co81   2.027       .  S
C67         C314   1.443       .  S
C68         C321   1.440       .  S
C69         C313   1.439       .  S
C70         C325   1.424       .  S
O71          C84   1.247       .  A
O71         Co79   1.968       .  S
O72          C85   1.270       .  A
O72         Co80   1.885       .  S
O73          C86   1.290       .  A
O73         Co81   2.070       .  S
O74          C87   1.255       .  A
O74         Co82   2.002       .  S
O75          C87   1.254       .  A
O75         Co80   2.005       .  S
O76          C86   1.258       .  A
O76         Co79   1.890       .  S
O77          C84   1.252       .  A
O77         Co82   1.989       .  S
O78          C85   1.295       .  A
O78         Co81   2.066       .  S
Co79         O83   1.921       .  S
Co80         O83   1.914       .  S
Co81         O83   2.257       .  S
Co82         O83   2.110       .  S
C84         C333   1.426       .  S
C85         C334   1.418       .  S
C86         C341   1.428       .  S
C87         C326   1.442       .  S
O88          C96   1.267       .  A
O88        Co108   2.009       .  S
O89          C97   1.272   1_554  A
O89        Co109   2.037       .  S
O90          C98   1.294       .  A
O90        Co110   2.055       .  S
O91          C99   1.269       .  A
O91        Co111   1.999       .  S
O92          C98   1.277       .  A
O92        Co514   1.907       .  S
O93         C504   1.265       .  A
O93        Co108   1.990       .  S
O94          C97   1.262   1_554  A
O94        Co111   1.971       .  S
O95          C96   1.260       .  A
O95        Co110   1.960       .  S
C96         C346   1.434       .  S
C97         C298   1.451       .  S
C98         C322   1.424       .  S
C99         O498   1.265       .  A
C99         C297   1.437       .  S
O100        C113   1.255       .  A
O100       Co513   1.957       .  S
O101        C519   1.295   1_554  A
O101       Co109   2.079       .  S
O102        C115   1.295       .  A
O102       Co110   2.117       .  S
O103        C116   1.273       .  A
O103       Co111   2.032       .  S
O104        C116   1.254       .  A
O104       Co109   1.946       .  S
O105        C115   1.263       .  A
O105       Co108   1.880       .  S
O106        C113   1.270       .  A
O106       Co111   2.016       .  S
O107        C114   1.271       .  A
O107       Co110   1.902       .  S
Co108       O505   1.957       .  S
Co108       O517   1.899       .  S
Co109       O497   1.907   1_554  S
Co109       O112   2.008       .  S
Co110       O517   2.042       .  S
Co111       O112   2.061       .  S
O112       Co513   1.899       .  S
O112       Co515   2.042   1_554  S
C113        C345   1.425       .  S
C114        O506   1.295       .  A
C114        C306   1.423       .  S
C115        C305   1.429       .  S
C116        C318   1.440       .  S
O117        C125   1.259       .  A
O117       Co137   1.984       .  S
O118        C126   1.268   1_556  A
O118       Co138   1.975       .  S
O119        C127   1.294       .  A
O119       Co139   2.095       .  S
O120        C128   1.276       .  A
O120       Co140   2.044       .  S
O121        C127   1.268       .  A
O121       Co543   1.906       .  S
O122        C533   1.261       .  A
O122       Co137   1.967       .  S
O123        C126   1.280       .  A
O123       Co140   2.044       .  S
O124        C125   1.264       .  A
O124       Co139   2.020       .  S
C125        C394   1.451       .  S
C126        C289   1.456       .  S
C127        C357   1.444       .  S
C128        O527   1.261   1_554  A
C128        C282   1.452       .  S
O129        C142   1.270       .  A
O129       Co542   2.025   1_554  S
O130        C548   1.291       .  A
O130       Co138   2.096       .  S
O131        C144   1.264       .  A
O131       Co139   1.973       .  S
O132        C145   1.254       .  A
O132       Co140   1.979       .  S
O133        C145   1.267       .  A
O133       Co138   2.029   1_554  S
O134        C144   1.277       .  A
O134       Co137   2.040       .  S
O135        C142   1.254       .  A
O135       Co140   1.955       .  S
O136        C143   1.263       .  A
O136       Co139   1.896       .  S
Co137       O534   2.025       .  S
Co137       O546   2.061       .  S
Co138       O526   1.906       .  S
Co138       O141   2.027   1_556  S
Co139       O546   2.019       .  S
Co140       O141   2.046       .  S
O141       Co542   2.061   1_554  S
O141       Co544   2.019   1_554  S
C142        C390   1.435       .  S
C143        O535   1.291       .  A
C143        C302   1.429       .  S
C144        C290   1.447       .  S
C145        C353   1.453       .  S
O146        C154   1.299       .  A
O146       Co166   2.118       .  S
O147        C155   1.273       .  A
O147       Co167   2.019       .  S
O148        C156   1.268       .  A
O148       Co168   1.979       .  S
O149        C157   1.258   1_556  A
O149       Co169   1.989   1_556  S
O150        C156   1.282       .  A
O150       Co572   2.054       .  S
O151        C562   1.260       .  A
O151       Co166   1.998       .  S
O152        C155   1.263       .  A
O152       Co169   1.970       .  S
O153        C154   1.261       .  A
O153       Co168   1.885       .  S
C154        C378   1.436       .  S
C155        C294   1.439       .  S
C156        C370   1.461       .  S
C157        O556   1.260       .  A
C157        C270   1.442   1_554  S
O158        C171   1.265       .  A
O158       Co571   1.981       .  S
O159        C577   1.249   1_554  A
O159       Co167   1.964       .  S
O160        C173   1.291       .  A
O160       Co168   2.106       .  S
O161        C174   1.271       .  A
O161       Co169   2.034       .  S
O162        C174   1.255       .  A
O162       Co167   1.963       .  S
O163        C173   1.261       .  A
O163       Co166   1.899       .  S
O164        C171   1.279       .  A
O164       Co169   2.045       .  S
O165        C172   1.257       .  A
O165       Co168   2.001       .  S
Co166       O563   1.981       .  S
Co166       O575   2.013       .  S
Co167       O555   2.054   1_554  S
Co167       O170   2.028       .  S
Co168       O575   2.022       .  S
Co169       O170   2.061       .  S
O170       Co571   2.013       .  S
O170       Co573   2.022   1_554  S
C171        C377   1.455       .  S
C172        O564   1.249       .  A
C172        C274   1.424       .  S
C173        C278   1.431       .  S
C174        C366   1.445       .  S
O175        C183   1.276       .  A
O175       Co195   2.026       .  S
O176        C184   1.262       .  A
O176       Co196   2.013   1_554  S
O177        C185   1.259       .  A
O177       Co197   1.899       .  S
O178        C186   1.257       .  A
O178       Co198   1.958       .  S
O179        C590   1.292   1_554  A
O179       Co196   2.110   1_554  S
O180        C186   1.268       .  A
O180       Co600   2.012   1_554  S
O181        C184   1.254       .  A
O181       Co198   1.978       .  S
O182        C183   1.265       .  A
O182       Co197   1.966       .  S
C183        C281   1.430       .  S
C184        C329   1.443       .  S
C185        O584   1.292       .  A
C185        C266   1.438       .  S
C186        C382   1.430       .  S
O187        C605   1.262       .  A
O187       Co195   1.969       .  S
O188        C201   1.266       .  A
O188       Co601   1.897       .  S
O189        C202   1.259       .  A
O189       Co197   2.002       .  S
O190        C203   1.280       .  A
O190       Co198   2.045       .  S
O191        C203   1.264   1_556  A
O191       Co196   1.970       .  S
O192        C202   1.260       .  A
O192       Co195   1.988       .  S
O193        C200   1.275       .  A
O193       Co198   2.037       .  S
O194        C201   1.290       .  A
O194       Co197   2.084       .  S
Co195       O585   2.012       .  S
Co195       O604   2.051       .  S
Co196       O593   1.897       .  S
Co196       O199   2.022   1_556  S
Co197       O604   2.004       .  S
Co198       O199   2.042       .  S
O199       Co600   2.051   1_554  S
O199       Co602   2.004   1_554  S
C200        O592   1.262   1_554  A
C200        C285   1.452       .  S
C201        C330   1.426       .  S
C202        C386   1.443       .  S
C203        C301   1.450       .  S
O204        C212   1.269       .  A
O204       Co224   2.007       .  S
O205        C213   1.239   1_556  A
O205       Co225   1.952   1_556  S
O206        C214   1.258       .  A
O206       Co226   1.964       .  S
O207        C215   1.263       .  A
O207       Co227   2.025       .  S
O208        C214   1.270       .  A
O208       Co630   2.017       .  S
O209        C620   1.248       .  A
O209       Co224   1.966       .  S
O210        C213   1.261       .  A
O210       Co227   2.042       .  S
O211        C212   1.259       .  A
O211       Co226   1.963       .  S
C212        C365   1.422       .  S
C213        C265   1.455       .  S
C214        C338   1.429       .  S
C215        O614   1.248   1_554  A
C215        C286   1.456       .  S
O216        C229   1.264       .  A
O216       Co629   1.879       .  S
O217        C635   1.255   1_554  A
O217       Co225   1.987       .  S
O218        C231   1.260       .  A
O218       Co226   1.997       .  S
O219        C232   1.298       .  A
O219       Co227   2.075       .  S
O220        C232   1.269       .  A
O220       Co225   1.880       .  S
O221        C231   1.258       .  A
O221       Co224   1.984       .  S
O222        C229   1.303       .  A
O222       Co227   2.120       .  S
O223        C230   1.265       .  A
O223       Co226   2.027       .  S
Co224       O621   1.879       .  S
Co224       O633   1.948       .  S
Co225       O613   2.017   1_554  S
Co225       O228   1.925   1_554  S
Co226       O633   2.097       .  S
Co227       O228   2.241   1_554  S
O228       Co629   1.948   1_556  S
O228       Co631   2.097       .  S
C229        C358   1.446       .  S
C230        O622   1.255       .  A
C230        C269   1.438       .  S
C231        C277   1.424       .  S
C232        C337   1.418       .  S
O233        C241   1.260       .  A
O233       Co253   1.897       .  S
O234        C242   1.255       .  A
O234       Co254   1.954       .  S
O235        C243   1.256       .  A
O235       Co255   1.986       .  S
O236        C244   1.276       .  A
O236       Co256   2.032       .  S
O237        C648   1.255   1_554  A
O237       Co254   1.977       .  S
O238        C244   1.261       .  A
O238       Co658   1.959       .  S
O239        C242   1.273       .  A
O239       Co256   2.035       .  S
O240        C241   1.297       .  A
O240       Co255   2.140       .  S
C241        C293   1.448       .  S
C242        C310   1.439       .  S
C243        O642   1.255       .  A
C243        C309   1.424       .  S
C244        C401   1.433       .  S
O245        C663   1.262       .  A
O245       Co253   1.997       .  S
O246        C259   1.278       .  A
O246       Co659   2.026       .  S
O247        C260   1.263       .  A
O247       Co255   1.885       .  S
O248        C261   1.266       .  A
O248       Co256   1.981       .  S
O249        C261   1.277       .  A
O249       Co254   2.040       .  S
O250        C260   1.293       .  A
O250       Co253   2.105       .  S
O251        C258   1.264       .  A
O251       Co256   1.995       .  S
O252        C259   1.270       .  A
O252       Co255   1.976       .  S
Co253       O643   1.959       .  S
Co253       O662   1.997       .  S
Co254       O651   2.026   1_554  S
Co254       O257   2.026       .  S
Co255       O662   2.013       .  S
Co256       O257   2.059       .  S
O257       Co658   1.997       .  S
O257       Co660   2.013   1_554  S
C258        O650   1.262       .  A
C258        C273   1.441   1_554  S
C259        C317   1.442       .  S
C260        C405   1.426       .  S
C261        C262   1.458       .  S
C262        C263   1.220       .  T
C263        C264   1.435       .  S
C264        C265   1.219       .  T
C266        C267   1.207       .  T
C267        C268   1.415       .  S
C268        C269   1.207       .  T
C270        C271   1.209       .  T
C271        C272   1.419   1_565  S
C272        C273   1.209       .  T
C274        C275   1.200       .  T
C275        C276   1.403       .  S
C276        C277   1.199       .  T
C278        C279   1.203       .  T
C279        C280   1.409       .  S
C280        C281   1.203       .  T
C282        C283   1.216       .  T
C283        C284   1.429   1_545  S
C284        C285   1.216       .  T
C286        C287   1.219       .  T
C287        C288   1.434   1_455  S
C288        C289   1.219       .  T
C290        C291   1.213       .  T
C291        C292   1.425       .  S
C292        C293   1.213       .  T
C294        C295   1.208       .  T
C295        C296   1.415   1_455  S
C296        C297   1.208       .  T
C298        C299   1.216       .  T
C299        C300   1.428       .  S
C300        C301   1.215   1_556  T
C302        C303   1.202       .  T
C303        C304   1.406       .  S
C304        C305   1.202       .  T
C306        C307   1.198       .  T
C307        C308   1.400       .  S
C308        C309   1.198       .  T
C310        C311   1.208       .  T
C311        C312   1.417       .  S
C312        C313   1.208       .  T
C314        C315   1.211       .  T
C315        C316   1.420       .  S
C316        C317   1.211       .  T
C318        C319   1.209       .  T
C319        C320   1.418       .  S
C320        C321   1.209       .  T
C322        C323   1.200       .  T
C323        C324   1.404       .  S
C324        C325   1.200       .  T
C326        C327   1.211       .  T
C327        C328   1.421       .  S
C328        C329   1.211       .  T
C330        C331   1.200       .  T
C331        C332   1.403       .  S
C332        C333   1.200       .  T
C334        C335   1.196       .  T
C335        C336   1.396       .  S
C336        C337   1.196       .  T
C338        C339   1.203       .  T
C339        C340   1.408       .  S
C340        C341   1.203       .  T
C342        C343   1.202       .  T
C343        C344   1.406       .  S
C344        C345   1.201       .  T
C346        C347   1.206       .  T
C347        C348   1.414       .  S
C348        C349   1.207       .  T
C350        C351   1.217       .  T
C351        C352   1.430       .  S
C352        C353   1.217       .  T
C354        C355   1.212       .  T
C355        C356   1.422       .  S
C356        C357   1.212       .  T
C358        C359   1.212       .  T
C359        C360   1.423       .  S
C360        C361   1.212       .  T
C362        C363   1.199       .  T
C363        C364   1.401       .  S
C364        C365   1.199       .  T
C366        C367   1.212       .  T
C367        C368   1.423       .  S
C368        C369   1.212       .  T
C370        C371   1.221       .  T
C371        C372   1.437       .  S
C372        C373   1.221       .  T
C374        C375   1.218       .  T
C375        C376   1.432       .  S
C376        C377   1.218       .  T
C378        C379   1.207       .  T
C379        C380   1.415       .  S
C380        C381   1.207       .  T
C382        C383   1.203       .  T
C383        C384   1.408       .  S
C384        C385   1.203       .  T
C386        C387   1.211       .  T
C387        C388   1.421       .  S
C388        C389   1.211       .  T
C390        C391   1.206       .  T
C391        C392   1.413       .  S
C392        C393   1.206       .  T
C394        C395   1.216       .  T
C395        C396   1.429       .  S
C396        C397   1.216       .  T
C398        C399   1.206       .  T
C399        C400   1.412       .  S
C400        C401   1.206       .  T
C402        C403   1.201       .  T
C403        C404   1.405       .  S
C404        C405   1.201       .  T
O406        C414   1.260       .  A
O406       Co426   1.987       .  S
O407        C415   1.269       .  A
O407       Co427   1.882       .  S
O408        C416   1.267       .  A
O408       Co428   2.029   1_565  S
O409        C417   1.300       .  A
O409       Co429   2.090       .  S
O410        C416   1.260       .  A
O410       Co427   1.994       .  S
O411        C417   1.270       .  A
O411       Co426   1.896       .  S
O412        C415   1.300       .  A
O412       Co429   2.079       .  S
O413        C414   1.262       .  A
O413       Co428   2.000   1_565  S
C414        C786   1.435       .  S
C415        C790   1.430       .  S
C416        C779   1.455       .  S
C417        C794   1.445       .  S
O418        C431   1.245       .  A
O418       Co426   1.973   1_545  S
O419        C432   1.269       .  A
O419       Co427   2.019   1_545  S
O420        C433   1.260       .  A
O420       Co428   1.966       .  S
O421        C434   1.252       .  A
O421       Co429   1.998   1_545  S
O422        C434   1.244       .  A
O422       Co427   1.962   1_545  S
O423        C433   1.269       .  A
O423       Co426   2.010   1_545  S
O424        C431   1.256       .  A
O424       Co429   2.018   1_545  S
O425        C432   1.258       .  A
O425       Co428   1.968       .  S
Co426       O430   1.936   1_565  S
Co427       O430   1.933   1_565  S
Co428       O430   2.091       .  S
Co429       O430   2.260   1_565  S
C431        C802   1.452       .  S
C432        C803   1.435       .  S
C433        C807   1.426       .  S
C434        C798   1.433       .  S
O435        C443   1.267       .  A
O435       Co455   2.016   1_655  S
O436        C444   1.246       .  A
O436       Co456   1.976   1_655  S
O437        C445   1.259       .  A
O437       Co457   1.962       .  S
O438        C446   1.254       .  A
O438       Co458   2.005   1_655  S
O439        C445   1.271       .  A
O439       Co456   2.014   1_655  S
O440        C446   1.248       .  A
O440       Co455   1.971   1_655  S
O441        C444   1.255       .  A
O441       Co458   2.015   1_655  S
O442        C443   1.258       .  A
O442       Co457   1.973       .  S
C443        C754   1.437       .  S
C444        C755   1.453       .  S
C445        C747   1.427       .  S
C446        C759   1.444       .  S
O447        C460   1.267       .  A
O447       Co455   1.876       .  S
O448        C461   1.260       .  A
O448       Co456   1.990       .  S
O449        C462   1.267       .  A
O449       Co457   2.033   1_455  S
O450        C463   1.300       .  A
O450       Co458   2.087       .  S
O451        C463   1.271       .  A
O451       Co456   1.897       .  S
O452        C462   1.260       .  A
O452       Co455   1.994       .  S
O453        C460   1.298       .  A
O453       Co458   2.073       .  S
O454        C461   1.263       .  A
O454       Co457   2.010   1_455  S
Co455       O459   1.939   1_455  S
Co456       O459   1.943   1_455  S
Co457       O459   2.100       .  S
Co458       O459   2.261   1_455  S
C460        C767   1.422       .  S
C461        C774   1.445       .  S
C462        C778   1.459       .  S
C463        C766   1.446       .  S
O464        C472   1.267       .  A
O464       Co484   1.984       .  S
O465        C473   1.273       .  A
O465       Co485   2.018       .  S
O466        C474   1.251       .  A
O466       Co486   1.993       .  S
O467        C475   1.269       .  A
O467       Co487   1.999       .  S
O468        C474   1.248       .  A
O468       Co485   1.972       .  S
O469        C475   1.287       .  A
O469       Co484   2.021       .  S
O470        C473   1.266       .  A
O470       Co487   1.977       .  S
O471        C472   1.262       .  A
O471       Co486   2.027       .  S
C472        C719   1.443       .  S
C473        C726   1.440       .  S
C474        C718   1.439       .  S
C475        C730   1.424       .  S
O476        C489   1.247       .  A
O476       Co484   1.968       .  S
O477        C490   1.270       .  A
O477       Co485   1.885       .  S
O478        C491   1.290       .  A
O478       Co486   2.070       .  S
O479        C492   1.255       .  A
O479       Co487   2.002       .  S
O480        C492   1.254       .  A
O480       Co485   2.005       .  S
O481        C491   1.258       .  A
O481       Co484   1.890       .  S
O482        C489   1.252       .  A
O482       Co487   1.989       .  S
O483        C490   1.295       .  A
O483       Co486   2.066       .  S
Co484       O488   1.921       .  S
Co485       O488   1.914       .  S
Co486       O488   2.257       .  S
Co487       O488   2.110       .  S
C489        C738   1.426       .  S
C490        C739   1.418       .  S
C491        C746   1.428       .  S
C492        C731   1.442       .  S
O493        C501   1.267       .  A
O493       Co513   2.009   1_556  S
O494        C502   1.272       .  A
O494       Co514   2.037       .  S
O495        C503   1.294       .  A
O495       Co515   2.055       .  S
O496        C504   1.269       .  A
O496       Co516   1.999       .  S
O497        C503   1.277       .  A
O498       Co513   1.990       .  S
O499        C502   1.262       .  A
O499       Co516   1.971       .  S
O500        C501   1.260       .  A
O500       Co515   1.960       .  S
C501        C751   1.434       .  S
C502        C703   1.451       .  S
C503        C727   1.424       .  S
C504        C702   1.437       .  S
O505        C518   1.255       .  A
O506       Co514   2.079       .  S
O507        C520   1.295       .  A
O507       Co515   2.117       .  S
O508        C521   1.273       .  A
O508       Co516   2.032       .  S
O509        C521   1.254       .  A
O509       Co514   1.946       .  S
O510        C520   1.263   1_554  A
O510       Co513   1.880       .  S
O511        C518   1.270       .  A
O511       Co516   2.016       .  S
O512        C519   1.271       .  A
O512       Co515   1.902       .  S
Co514       O517   2.008       .  S
Co516       O517   2.061       .  S
C518        C750   1.425       .  S
C519        C711   1.423       .  S
C520        C710   1.429       .  S
C521        C723   1.440       .  S
O522        C530   1.259       .  A
O522       Co542   1.984       .  S
O523        C531   1.268       .  A
O523       Co543   1.975       .  S
O524        C532   1.294       .  A
O524       Co544   2.095       .  S
O525        C533   1.276       .  A
O525       Co545   2.044       .  S
O526        C532   1.268       .  A
O527       Co542   1.967       .  S
O528        C531   1.280       .  A
O528       Co545   2.044       .  S
O529        C530   1.264       .  A
O529       Co544   2.020       .  S
C530        C799   1.451       .  S
C531        C694   1.456       .  S
C532        C762   1.444       .  S
C533        C687   1.452       .  S
O534        C547   1.270       .  A
O535       Co543   2.096       .  S
O536        C549   1.264       .  A
O536       Co544   1.973   1_554  S
O537        C550   1.254       .  A
O537       Co545   1.979       .  S
O538        C550   1.267       .  A
O538       Co543   2.029       .  S
O539        C549   1.277   1_556  A
O539       Co542   2.040       .  S
O540        C547   1.254       .  A
O540       Co545   1.955       .  S
O541        C548   1.263       .  A
O541       Co544   1.896       .  S
Co543       O546   2.027       .  S
Co545       O546   2.046       .  S
C547        C795   1.435       .  S
C548        C707   1.429       .  S
C549        C695   1.447       .  S
C550        C758   1.453       .  S
O551        C559   1.299       .  A
O551       Co571   2.118   1_556  S
O552        C560   1.273       .  A
O552       Co572   2.019       .  S
O553        C561   1.268       .  A
O553       Co573   1.979       .  S
O554        C562   1.258       .  A
O554       Co574   1.989       .  S
O555        C561   1.282       .  A
O556       Co571   1.998       .  S
O557        C560   1.263       .  A
O557       Co574   1.970       .  S
O558        C559   1.261       .  A
O558       Co573   1.885       .  S
C559        C783   1.436       .  S
C560        C699   1.439       .  S
C561        C775   1.461       .  S
C562        C675   1.442       .  S
O563        C576   1.265       .  A
O564       Co572   1.964       .  S
O565        C578   1.291       .  A
O565       Co573   2.106       .  S
O566        C579   1.271       .  A
O566       Co574   2.034       .  S
O567        C579   1.255       .  A
O567       Co572   1.963       .  S
O568        C578   1.261   1_554  A
O568       Co571   1.899       .  S
O569        C576   1.279       .  A
O569       Co574   2.045       .  S
O570        C577   1.257       .  A
O570       Co573   2.001       .  S
Co572       O575   2.028       .  S
Co574       O575   2.061       .  S
C576        C782   1.455       .  S
C577        C679   1.424       .  S
C578        C683   1.431   1_556  S
C579        C771   1.445       .  S
O580        C588   1.276   1_556  A
O580       Co600   2.026       .  S
O581        C589   1.262       .  A
O581       Co601   2.013       .  S
O582        C590   1.259       .  A
O582       Co602   1.899       .  S
O583        C591   1.257       .  A
O583       Co603   1.958       .  S
O584       Co601   2.110       .  S
O585        C591   1.268       .  A
O586        C589   1.254       .  A
O586       Co603   1.978       .  S
O587        C588   1.265       .  A
O587       Co602   1.966   1_554  S
C588        C686   1.430       .  S
C589        C734   1.443       .  S
C590        C671   1.438       .  S
C591        C787   1.430       .  S
O592       Co600   1.969       .  S
O593        C606   1.266       .  A
O594        C607   1.259       .  A
O594       Co602   2.002       .  S
O595        C608   1.280       .  A
O595       Co603   2.045       .  S
O596        C608   1.264       .  A
O596       Co601   1.970       .  S
O597        C607   1.260       .  A
O597       Co600   1.988       .  S
O598        C605   1.275       .  A
O598       Co603   2.037       .  S
O599        C606   1.290       .  A
O599       Co602   2.084       .  S
Co601       O604   2.022       .  S
Co603       O604   2.042       .  S
C605        C690   1.452       .  S
C606        C735   1.426       .  S
C607        C791   1.443       .  S
C608        C706   1.450       .  S
O609        C617   1.269       .  A
O609       Co629   2.007   1_556  S
O610        C618   1.239       .  A
O610       Co630   1.952       .  S
O611        C619   1.258       .  A
O611       Co631   1.964       .  S
O612        C620   1.263       .  A
O612       Co632   2.025       .  S
O613        C619   1.270       .  A
O614       Co629   1.966   1_556  S
O615        C618   1.261       .  A
O615       Co632   2.042       .  S
O616        C617   1.259       .  A
O616       Co631   1.963       .  S
C617        C770   1.422       .  S
C618        C670   1.455       .  S
C619        C743   1.429       .  S
C620        C691   1.456       .  S
O621        C634   1.264       .  A
O622       Co630   1.987       .  S
O623        C636   1.260       .  A
O623       Co631   1.997       .  S
O624        C637   1.298       .  A
O624       Co632   2.075       .  S
O625        C637   1.269       .  A
O625       Co630   1.880       .  S
O626        C636   1.258   1_554  A
O626       Co629   1.984       .  S
O627        C634   1.303       .  A
O627       Co632   2.120       .  S
O628        C635   1.265       .  A
O628       Co631   2.027       .  S
Co630       O633   1.925       .  S
Co632       O633   2.241       .  S
C634        C763   1.446       .  S
C635        C674   1.438       .  S
C636        C682   1.424   1_556  S
C637        C742   1.418       .  S
O638        C646   1.260   1_554  A
O638       Co658   1.897       .  S
O639        C647   1.255       .  A
O639       Co659   1.954       .  S
O640        C648   1.256       .  A
O640       Co660   1.986       .  S
O641        C649   1.276       .  A
O641       Co661   2.032       .  S
O642       Co659   1.977       .  S
O643        C649   1.261       .  A
O644        C647   1.273       .  A
O644       Co661   2.035       .  S
O645        C646   1.297       .  A
O645       Co660   2.140       .  S
C646        C698   1.448   1_556  S
C647        C715   1.439       .  S
C648        C714   1.424       .  S
C649        C806   1.433       .  S
O650       Co658   1.997       .  S
O651        C664   1.277       .  A
O652        C665   1.263       .  A
O652       Co660   1.885       .  S
O653        C666   1.266       .  A
O653       Co661   1.981       .  S
O654        C666   1.277       .  A
O654       Co659   2.040       .  S
O655        C665   1.293       .  A
O655       Co658   2.105   1_556  S
O656        C663   1.264       .  A
O656       Co661   1.995       .  S
O657        C664   1.270       .  A
O657       Co660   1.976       .  S
Co659       O662   2.026       .  S
Co661       O662   2.059       .  S
C663        C678   1.441       .  S
C664        C722   1.442       .  S
C665        C810   1.426       .  S
C666        C667   1.458       .  S
C667        C668   1.220       .  T
C668        C669   1.435       .  S
C669        C670   1.219       .  T
C671        C672   1.207   1_556  T
C672        C673   1.415       .  S
C673        C674   1.207   1_554  T
C675        C676   1.209       .  T
C676        C677   1.419   1_565  S
C677        C678   1.209       .  T
C679        C680   1.200       .  T
C680        C681   1.403   1_556  S
C681        C682   1.199       .  T
C683        C684   1.203       .  T
C684        C685   1.409       .  S
C685        C686   1.203       .  T
C687        C688   1.216       .  T
C688        C689   1.429   1_545  S
C689        C690   1.216       .  T
C691        C692   1.219       .  T
C692        C693   1.434   1_455  S
C693        C694   1.219       .  T
C695        C696   1.213       .  T
C696        C697   1.425       .  S
C697        C698   1.213       .  T
C699        C700   1.208       .  T
C700        C701   1.415   1_455  S
C701        C702   1.208       .  T
C703        C704   1.216       .  T
C704        C705   1.428       .  S
C705        C706   1.215       .  T
C707        C708   1.202       .  T
C708        C709   1.406       .  S
C709        C710   1.202       .  T
C711        C712   1.198       .  T
C712        C713   1.400       .  S
C713        C714   1.198       .  T
C715        C716   1.208       .  T
C716        C717   1.417       .  S
C717        C718   1.208       .  T
C719        C720   1.211       .  T
C720        C721   1.420       .  S
C721        C722   1.211       .  T
C723        C724   1.209       .  T
C724        C725   1.418       .  S
C725        C726   1.209       .  T
C727        C728   1.200       .  T
C728        C729   1.404       .  S
C729        C730   1.200       .  T
C731        C732   1.211       .  T
C732        C733   1.421       .  S
C733        C734   1.211       .  T
C735        C736   1.200       .  T
C736        C737   1.403       .  S
C737        C738   1.200       .  T
C739        C740   1.196       .  T
C740        C741   1.396       .  S
C741        C742   1.196       .  T
C743        C744   1.203       .  T
C744        C745   1.408       .  S
C745        C746   1.203       .  T
C747        C748   1.202       .  T
C748        C749   1.406       .  S
C749        C750   1.201       .  T
C751        C752   1.206       .  T
C752        C753   1.414       .  S
C753        C754   1.207       .  T
C755        C756   1.217       .  T
C756        C757   1.430       .  S
C757        C758   1.217       .  T
C759        C760   1.212       .  T
C760        C761   1.422       .  S
C761        C762   1.212       .  T
C763        C764   1.212       .  T
C764        C765   1.423       .  S
C765        C766   1.212       .  T
C767        C768   1.199       .  T
C768        C769   1.401       .  S
C769        C770   1.199       .  T
C771        C772   1.212       .  T
C772        C773   1.423       .  S
C773        C774   1.212       .  T
C775        C776   1.221       .  T
C776        C777   1.437       .  S
C777        C778   1.221       .  T
C779        C780   1.218       .  T
C780        C781   1.432       .  S
C781        C782   1.218       .  T
C783        C784   1.207       .  T
C784        C785   1.415       .  S
C785        C786   1.207       .  T
C787        C788   1.203       .  T
C788        C789   1.408       .  S
C789        C790   1.203       .  T
C791        C792   1.211       .  T
C792        C793   1.421       .  S
C793        C794   1.211       .  T
C795        C796   1.206       .  T
C796        C797   1.413       .  S
C797        C798   1.206       .  T
C799        C800   1.216       .  T
C800        C801   1.429       .  S
C801        C802   1.216       .  T
C803        C804   1.206       .  T
C804        C805   1.412       .  S
C805        C806   1.206       .  T
C807        C808   1.201       .  T
C808        C809   1.405       .  S
C809        C810   1.201       .  T
