geometry optimzed in LAMMPS
_audit_creation_date              2020-11-30 
_audit_creation_method            'lammps2cif' 
_symmetry_space_group_name_H-M    'P1' 
_symmetry_Int_Tables_number       1 
_symmetry_cell_setting            triclinic 
loop_ 
_symmetry_equiv_pos_as_xyz 
  x,y,z 
_cell_length_a                    32.74250153 
_cell_length_b                    32.82710367089238 
_cell_length_c                    31.902399893004993 
_cell_angle_alpha                 89.51753516003669 
_cell_angle_beta                  90.01040382558068 
_cell_angle_gamma                 89.9427088600586 
loop_ 
_atom_site_label 
_atom_site_type_symbol 
_atom_site_fract_x 
_atom_site_fract_y 
_atom_site_fract_z 
_atom_site_charge 
C1          C  0.52613397  0.20585451  0.50436825     0.79400
N2          N  0.54997731  0.21202528  0.47002152    -0.78900
C3          C  0.58929024  0.22437389  0.47404538     0.81800
N4          N  0.60473268  0.23037460  0.01286036    -0.78900
C5          C  0.58156188  0.22414536  0.04748315     0.81900
N6          N  0.54222681  0.21177782  0.04317536    -0.80600
Fe7        Fe  0.77807663  0.20855038  0.19877184     1.65800
Fe8        Fe  0.78512547  0.20461700  0.30525026     1.73200
Fe9        Fe  0.73426448  0.28356686  0.25731209     1.54400
O10         O  0.76511420  0.31098023  0.20734178    -0.82500
O11         O  0.72928138  0.20750752  0.33341562    -0.80800
O12         O  0.80030687  0.26234613  0.17563506    -0.85000
O13         O  0.72065906  0.22048072  0.17502254    -0.79900
O14         O  0.77574297  0.30970849  0.29746385    -0.81600
O15         O  0.76943897  0.14724206  0.28404958    -0.84400
C16         C  0.68942758  0.24076537  0.18564715     0.96400
C17         C  0.79044351  0.29942953  0.17968286     1.03800
O18         O  0.76573476  0.23229665  0.25386616    -1.13400
O19         O  0.84367134  0.19872353  0.28354808    -0.75800
O20         O  0.83746929  0.19302720  0.21442103    -0.79300
O21         O  0.68857374  0.26345074  0.21764675    -0.80000
C22         C  0.85867881  0.19212973  0.24768665     0.95300
O23         O  0.75691049  0.15219771  0.21567294    -0.77900
O24         O  0.80246090  0.25808745  0.33426038    -0.83100
C25         C  0.70176222  0.23454168  0.33458096     0.97900
C26         C  0.79645876  0.29587471  0.32805065     1.03800
O27         O  0.69969417  0.26390988  0.30840061    -0.78800
C28         C  0.75745645  0.13212274  0.24967902     1.02100
C29         C  0.84442696  0.45930673  0.50055842     0.79400
N30         N  0.84470791  0.43741320  0.46462247    -0.78900
C31         C  0.84475834  0.39617118  0.46587144     0.81800
N32         N  0.84323571  0.37658936  0.50343058    -0.78900
C33         C  0.84265991  0.39787655  0.03973013     0.81900
N34         N  0.84239448  0.43918764  0.03795628    -0.80600
C35         C  0.72788534  0.95889832  0.25038749     0.79400
N36         N  0.72648165  0.94168188  0.28929703    -0.78900
C37         C  0.72484635  0.90073384  0.29404015     0.81800
N38         N  0.72607596  0.87689758  0.25971090    -0.78900
C39         C  0.72815444  0.89304211  0.22062227     0.81900
N40         N  0.72887334  0.93432899  0.21620323    -0.80600
Fe41       Fe  0.77972168  0.70108650  0.05425475     1.65800
Fe42       Fe  0.77937299  0.70838198  0.44806459     1.73200
Fe43       Fe  0.82909169  0.78080788  0.50590799     1.54400
O44         O  0.79173454  0.80618609  0.05090364    -0.82500
O45         O  0.83599660  0.71647787  0.42269656    -0.80800
O46         O  0.76092943  0.75360063  0.08236405    -0.85000
O47         O  0.83616512  0.70576175  0.08140833    -0.79900
O48         O  0.79489767  0.81088138  0.46094649    -0.81600
O49         O  0.79763007  0.65005495  0.46307729    -0.84400
C50         C  0.86569940  0.73040987  0.07882411     0.96400
C51         C  0.76852997  0.79137952  0.07911657     1.03800
O52         O  0.79600214  0.73028381  0.50288346    -1.13400
O53         O  0.72027354  0.69660916  0.46585628    -0.75800
O54         O  0.72052510  0.69191146  0.03524428    -0.79300
O55         O  0.86755900  0.75880197  0.05176908    -0.80000
C56         C  0.70223860  0.69044314  0.50039928     0.95300
O57         O  0.79756118  0.64541643  0.03218014    -0.77900
O58         O  0.75985433  0.76413036  0.42626843    -0.83100
C59         C  0.86808499  0.73636523  0.43069200     0.97900
C60         C  0.76963368  0.80091568  0.43278889     1.03800
O61         O  0.87070435  0.76090602  0.46118134    -0.78800
C62         C  0.80352068  0.63006848  0.99639573     1.02100
C63         C  0.03307458  0.69192743  0.25370494     0.79400
N64         N  0.01512624  0.69881212  0.29141609    -0.78900
C65         C  0.97569447  0.71133820  0.29321517     0.81800
N66         N  0.95417618  0.71705510  0.25732625    -0.78900
C67         C  0.97189165  0.71002848  0.21965723     0.81900
N68         N  0.01132148  0.69769458  0.21792619    -0.80600
C69         C  0.34012043  0.88710931  0.24267988     0.79400
N70         N  0.34260054  0.90829984  0.27904955    -0.78900
C71         C  0.34277562  0.94973954  0.27862119     0.81800
N72         N  0.33870067  0.96979020  0.24148115    -0.78900
C73         C  0.33553759  0.94914572  0.20503446     0.81900
N74         N  0.33641909  0.90792245  0.20583943    -0.80600
Fe75       Fe  0.27682187  0.14108791  0.04167528     1.65800
Fe76       Fe  0.28182784  0.14186462  0.43557811     1.73200
Fe77       Fe  0.23518371  0.06255376  0.48714431     1.54400
O78         O  0.26738009  0.03859566  0.03731812    -0.82500
O79         O  0.22515201  0.13598130  0.40894097    -0.80800
O80         O  0.30129482  0.08911987  0.06729317    -0.85000
O81         O  0.22042858  0.12826889  0.06653844    -0.79900
O82         O  0.27800002  0.03625368  0.44825951    -0.81600
O83         O  0.26420606  0.19933793  0.45473611    -0.84400
C84         C  0.18961613  0.10695933  0.05709586     0.96400
C85         C  0.29224321  0.05178878  0.06463137     1.03800
O86         O  0.26461077  0.11502605  0.48815356    -1.13400
O87         O  0.34090652  0.15129964  0.45571440    -0.75800
O88         O  0.33495971  0.15824597  0.02445716    -0.79300
O89         O  0.18922475  0.08262935  0.02633828    -0.80000
C90         C  0.35555217  0.16064829  0.49114178     0.95300
O91         O  0.25312742  0.19558508  0.02251971    -0.77900
O92         O  0.30100265  0.08781277  0.40936415    -0.83100
C93         C  0.19876275  0.10781889  0.40953397     0.97900
C94         C  0.29854447  0.04990753  0.41751053     1.03800
O95         O  0.19962974  0.07842632  0.43565976    -0.78800
C96         C  0.25158145  0.21485333  0.98805612     1.02100
C97         C  0.02661438  0.13952687  0.23774329     0.79400
N98         N  0.04959081  0.13408200  0.27273363    -0.78900
C99         C  0.08875108  0.12108057  0.26991728     0.81800
N100        N  0.10515621  0.11353107  0.23172481    -0.78900
C101        C  0.08272931  0.11970000  0.19643188     0.81900
N102        N  0.04363277  0.13318819  0.19943586    -0.80600
C103        C  0.21698620  0.38639237  0.49987854     0.79400
N104        N  0.21785321  0.40889946  0.46404970    -0.78900
C105        C  0.22165767  0.44989978  0.46516343     0.81800
N106        N  0.22408101  0.46889161  0.50265228    -0.78900
C107        C  0.22264872  0.44701011  0.03846066     0.81900
N108        N  0.21974749  0.40583081  0.03677476    -0.80600
Fe109      Fe  0.28147553  0.64188716  0.30120180     1.65800
Fe110      Fe  0.28286515  0.63790834  0.19423396     1.73200
Fe111      Fe  0.32478517  0.56023856  0.25197617     1.54400
O112        O  0.36372415  0.57859940  0.29937061    -0.82500
O113        O  0.25893436  0.58487871  0.17111257    -0.80800
O114        O  0.33869571  0.63564663  0.32668032    -0.85000
O115        O  0.26240389  0.58984163  0.33151907    -0.79900
O116        O  0.36859164  0.57666389  0.20845068    -0.81600
O117        O  0.22440962  0.65362754  0.21217746    -0.84400
C118        C  0.26474797  0.55188463  0.32551297     0.96400
C119        C  0.36540236  0.60766805  0.32532891     1.03800
O120        O  0.29659214  0.61339089  0.24910693    -1.13400
O121        O  0.30527292  0.69405786  0.21012900    -0.75800
O122        O  0.29842367  0.69856073  0.27917732    -0.79300
O123        O  0.28438577  0.53685324  0.29509596    -0.80000
C124        C  0.30703675  0.71407636  0.24379082     0.95300
O125        O  0.22235187  0.65041671  0.28183421    -0.77900
O126        O  0.33910541  0.62478725  0.16882049    -0.83100
C127        C  0.26548294  0.54730029  0.17723653     0.97900
C128        C  0.36837337  0.60074568  0.17715863     1.03800
O129        O  0.28942549  0.53435252  0.20566503    -0.78800
C130        C  0.20521036  0.65571811  0.24658978     1.02100
C131        C  0.53644836  0.63129160  0.49995614     0.79400
N132        N  0.51512343  0.62705640  0.46377856    -0.78900
C133        C  0.47598471  0.61383523  0.46460750     0.81800
N134        N  0.45762706  0.60581573  0.50180190    -0.78900
C135        C  0.47819610  0.61056735  0.03874646     0.81900
N136        N  0.51772243  0.62303611  0.03777216    -0.80600
C137        C  0.41031199  0.64628511  0.37348312    -0.10000
C138        C  0.39857288  0.60849556  0.35686829     0.06200
C139        C  0.41512795  0.57235456  0.37461731    -0.03700
C140        C  0.44160390  0.57472991  0.40893563    -0.08200
C141        C  0.45204943  0.61243308  0.42591855     0.05300
C142        C  0.43675378  0.64841901  0.40772645    -0.03200
Br143      Br  0.44860365  0.70091237  0.43083376    -0.02900
H144        H  0.39779664  0.67431849  0.36068400     0.09200
H145        H  0.45307331  0.54695595  0.42330685     0.07300
Br146      Br  0.39993617  0.51862241  0.35692642    -0.03300
C147        C  0.42970531  0.57157848  0.08269613    -0.10000
C148        C  0.45626098  0.60490082  0.07875290     0.06200
C149        C  0.45704854  0.63450262  0.11067160    -0.03700
C150        C  0.42973431  0.63151415  0.14433240    -0.08200
C151        C  0.40208751  0.59910115  0.14703617     0.05300
C152        C  0.40285840  0.56844765  0.11652693    -0.03200
Br153      Br  0.36497440  0.52391223  0.11744410    -0.02900
H154        H  0.42864784  0.54871479  0.05840999     0.09200
H155        H  0.42875423  0.65552786  0.16741400     0.07300
Br156      Br  0.49088031  0.68213413  0.10775479    -0.03300
C157        C  0.26501886  0.48501944  0.36142819    -0.10000
C158        C  0.24720169  0.52377389  0.35717095     0.06200
C159        C  0.21742943  0.53602294  0.38667604    -0.03700
C160        C  0.20841459  0.51075355  0.42091900    -0.08200
C161        C  0.22810508  0.47315791  0.42620210     0.05300
C162        C  0.25615185  0.45995989  0.39563490    -0.03200
Br163      Br  0.28778062  0.41082273  0.40117873    -0.02900
H164        H  0.28823585  0.47508174  0.33957533     0.09200
H165        H  0.18645228  0.52085855  0.44402882     0.07300
Br166      Br  0.18785396  0.58648843  0.38259099    -0.03300
C167        C  0.20590392  0.50337098  0.08633473    -0.10000
C168        C  0.22840134  0.46786870  0.07871269     0.06200
C169        C  0.25840456  0.45540854  0.10782788    -0.03700
C170        C  0.26743022  0.48014234  0.14202217    -0.08200
C171        C  0.24744317  0.51764549  0.14768854     0.05300
C172        C  0.21460632  0.52792089  0.12076898    -0.03200
Br173      Br  0.18009504  0.57457415  0.12907597    -0.02900
H174        H  0.18195507  0.51254659  0.06478603     0.09200
H175        H  0.29237014  0.47127495  0.16246203     0.07300
Br176      Br  0.29190851  0.40801812  0.09999614    -0.03300
C177        C  0.22705475  0.27453744  0.02809796    -0.10000
C178        C  0.23664563  0.25756238  0.98892778     0.06200
C179        C  0.23240602  0.28202175  0.45332395    -0.03700
C180        C  0.22383678  0.32344126  0.45757353    -0.08200
C181        C  0.21841131  0.34126187  0.49723290     0.05300
C182        C  0.21727918  0.31561388  0.03226961    -0.03200
Br183      Br  0.20248984  0.33283195  0.08771164    -0.02900
H184        H  0.22786456  0.25595585  0.05629022     0.09200
H185        H  0.22262241  0.34193261  0.42934356     0.07300
Br186      Br  0.23793025  0.26233165  0.39697602    -0.03300
C187        C  0.14173249  0.07405938  0.10676070    -0.10000
C188        C  0.15411683  0.10940346  0.08529043     0.06200
C189        C  0.13774712  0.14738334  0.09710842    -0.03700
C190        C  0.11166572  0.14980947  0.13172697    -0.08200
C191        C  0.10225121  0.11488604  0.15532416     0.05300
C192        C  0.11629769  0.07664822  0.14190038    -0.03200
Br193      Br  0.10297346  0.02756503  0.17188546    -0.02900
H194        H  0.15425521  0.04473702  0.09812877     0.09200
H195        H  0.10076632  0.17934734  0.14176314     0.07300
Br196      Br  0.15145475  0.19691021  0.06800703    -0.03300
C197        C  0.13438633  0.08003844  0.31564243    -0.10000
C198        C  0.11389365  0.11684748  0.30789082     0.06200
C199        C  0.11939551  0.14972400  0.33544430    -0.03700
C200        C  0.14595999  0.14567032  0.36952103    -0.08200
C201        C  0.16681423  0.10899692  0.37709860     0.05300
C202        C  0.16053511  0.07578167  0.35008839    -0.03200
Br203      Br  0.18993707  0.02542283  0.35626042    -0.02900
H204        H  0.13056968  0.05474163  0.29438525     0.09200
H205        H  0.15119982  0.17162123  0.38960332     0.07300
Br206      Br  0.09447887  0.20195430  0.32582858    -0.03300
C207        C  0.35015692  0.00779728  0.15820760    -0.09200
C208        C  0.32826441  0.97178059  0.16555147     0.06200
C209        C  0.29779800  0.96018818  0.13674871    -0.03700
C210        C  0.28859876  0.98552834  0.10264182    -0.08200
C211        C  0.30883363  0.02287862  0.09647045     0.05300
C212        C  0.34112162  0.03316191  0.12401936    -0.03200
Br213      Br  0.37451308  0.08097585  0.11754640    -0.02900
H214        H  0.37414180  0.01663668  0.17968427     0.09200
H215        H  0.26371505  0.97685864  0.08220112     0.07300
Br216      Br  0.26403785  0.91293171  0.14443033    -0.03300
C217        C  0.34146243  0.03766932  0.35455850    -0.10000
C218        C  0.31842776  0.02113753  0.38783268     0.06200
C219        C  0.31146950  0.97849715  0.38843978    -0.03700
C220        C  0.32242674  0.95506123  0.35367831    -0.08200
C221        C  0.34092795  0.97292062  0.31830207     0.05300
C222        C  0.35296138  0.01411292  0.32031920    -0.03200
Br223      Br  0.38515841  0.04043008  0.27762558    -0.02900
H224        H  0.34930939  0.06971592  0.35410706     0.09200
H225        H  0.31427294  0.92308756  0.35348496     0.07300
Br226      Br  0.28588013  0.94981461  0.43416999    -0.03300
C227        C  0.33901460  0.77500631  0.27604390    -0.10000
C228        C  0.31865041  0.75751758  0.24185278     0.06200
C229        C  0.30787477  0.78251706  0.20743425    -0.03700
C230        C  0.31681541  0.82394068  0.20814590    -0.08200
C231        C  0.33585302  0.84202563  0.24283525     0.05300
C232        C  0.34787415  0.81673298  0.27681625    -0.03200
Br233      Br  0.37753911  0.83611933  0.32462348    -0.02900
H234        H  0.34802468  0.75609018  0.30246865     0.09200
H235        H  0.30723214  0.84228826  0.18164097     0.07300
Br236      Br  0.27746699  0.76356235  0.15986290    -0.03300
C237        C  0.10016017  0.69688828  0.21838815    -0.10000
C238        C  0.07649308  0.68046593  0.25109894     0.06200
C239        C  0.09502819  0.65419647  0.28062003    -0.03700
C240        C  0.13683862  0.64644731  0.27810948    -0.08200
C241        C  0.16087137  0.66387400  0.24620914     0.05300
C242        C  0.14194934  0.68883172  0.21560243    -0.03200
Br243      Br  0.17124297  0.71501140  0.17074117    -0.02900
H244        H  0.08629156  0.71704675  0.19537881     0.09200
H245        H  0.15059389  0.62621342  0.30108309     0.07300
Br246      Br  0.06483166  0.62584512  0.32341839    -0.03300
C247        C  0.64551581  0.65362600  0.46665248    -0.10000
C248        C  0.65890159  0.67835072  0.49958078     0.06200
C249        C  0.63151792  0.68780718  0.03205398    -0.03700
C250        C  0.59203702  0.67171156  0.03182771    -0.08200
C251        C  0.57873704  0.64686144  0.49903398     0.05300
C252        C  0.60603470  0.63771395  0.46614201    -0.03200
Br253      Br  0.59304030  0.60128603  0.42121138    -0.02900
H254        H  0.66641943  0.64530337  0.44181388     0.09200
H255        H  0.57124662  0.68002946  0.05670825     0.07300
Br256      Br  0.64511912  0.72506937  0.07602595    -0.03300
C257        C  0.91658096  0.68942683  0.11811965    -0.10000
C258        C  0.89766246  0.72716261  0.11082825     0.06200
C259        C  0.90485365  0.75964443  0.13846444    -0.03700
C260        C  0.92987600  0.75365882  0.17339928    -0.08200
C261        C  0.94832314  0.71581201  0.18100523     0.05300
C262        C  0.94217610  0.68366313  0.15273699    -0.03200
Br263      Br  0.96485411  0.63041433  0.16209947    -0.02900
H264        H  0.91042113  0.66407049  0.09753790     0.09200
H265        H  0.93429007  0.77839218  0.19521271     0.07300
Br266      Br  0.87787401  0.81137139  0.13251466    -0.03300
C267        C  0.90955481  0.69038936  0.38698936    -0.10000
C268        C  0.90291371  0.72999028  0.40210359     0.06200
C269        C  0.92508124  0.76270837  0.38442284    -0.03700
C270        C  0.95086685  0.75576788  0.35015431    -0.08200
C271        C  0.95522491  0.71657984  0.33362745     0.05300
C272        C  0.93545945  0.68353797  0.35304839    -0.03200
Br273      Br  0.94021913  0.62912847  0.33197120    -0.02900
H274        H  0.89288830  0.66488391  0.40031084     0.09200
H275        H  0.96596250  0.78130951  0.33506304     0.07300
Br276      Br  0.91778581  0.81789494  0.40227244    -0.03300
C277        C  0.74820183  0.80004485  0.15258710    -0.10000
C278        C  0.75266377  0.81781480  0.11275854     0.06200
C279        C  0.74538323  0.85987256  0.10792485    -0.03700
C280        C  0.73562649  0.88336358  0.14309875    -0.08200
C281        C  0.73359822  0.86593146  0.18366451     0.05300
C282        C  0.73923687  0.82315676  0.18773482    -0.03200
Br283      Br  0.73807173  0.79234466  0.23936407    -0.02900
H284        H  0.75379989  0.76782654  0.15704452     0.09200
H285        H  0.73037847  0.91550169  0.13858412     0.07300
Br286      Br  0.74737798  0.88677495  0.05429968    -0.03300
C287        C  0.75870397  0.89499693  0.36324653    -0.10000
C288        C  0.72827767  0.88155592  0.33573359     0.06200
C289        C  0.70628538  0.84604136  0.34567771    -0.03700
C290        C  0.71828914  0.82191373  0.37966834    -0.08200
C291        C  0.75207628  0.83258568  0.40452665     0.05300
C292        C  0.77070414  0.87106929  0.39764431    -0.03200
Br293      Br  0.81485575  0.89188875  0.43091756    -0.02900
H294        H  0.77530927  0.92277801  0.35626631     0.09200
H295        H  0.70214990  0.79361679  0.38540125     0.07300
Br296      Br  0.65996580  0.82884943  0.31345495    -0.03300
C297        C  0.82233321  0.52135156  0.46181982    -0.10000
C298        C  0.83933619  0.50394957  0.99828339     0.06200
C299        C  0.84796946  0.52966239  0.03241874    -0.03700
C300        C  0.83699272  0.57069332  0.03033936    -0.08200
C301        C  0.81775413  0.58732451  0.99468686     0.05300
C302        C  0.81148657  0.56243436  0.45973458    -0.03200
Br303      Br  0.78591011  0.58068367  0.40863901    -0.02900
H304        H  0.81562089  0.50243536  0.43503799     0.09200
H305        H  0.84334380  0.58969615  0.05717029     0.07300
Br306      Br  0.87550411  0.51176377  0.08252521    -0.03300
C307        C  0.91808207  0.15489877  0.27644871    -0.10000
C308        C  0.90219346  0.18077744  0.24525951     0.06200
C309        C  0.92776806  0.19367670  0.21220770    -0.03700
C310        C  0.96810867  0.17983342  0.21036560    -0.08200
C311        C  0.98384378  0.15341594  0.24123297     0.05300
C312        C  0.95831829  0.14099362  0.27469269    -0.03200
Br313      Br  0.97486687  0.10273905  0.31739687    -0.02900
H314        H  0.89863993  0.14434105  0.30179617     0.09200
H315        H  0.98747170  0.19027622  0.18491917     0.07300
Br316      Br  0.91034399  0.23197509  0.17021007    -0.03300
C317        C  0.71922111  0.02742362  0.28140867    -0.10000
C318        C  0.73089217  0.00397183  0.24659963     0.06200
C319        C  0.74724160  0.02433972  0.21104895    -0.03700
C320        C  0.75433608  0.06627128  0.21251563    -0.08200
C321        C  0.74525344  0.08889168  0.24846899     0.05300
C322        C  0.72593920  0.06937118  0.28251475    -0.03200
Br323      Br  0.70624871  0.09840334  0.33051556    -0.02900
H324        H  0.70504188  0.01304856  0.30839713     0.09200
H325        H  0.76845923  0.08107824  0.18571905     0.07300
Br326      Br  0.76291115  0.99795421  0.15998755    -0.03300
C327        C  0.83940711  0.31498588  0.12223095    -0.10000
C328        C  0.80847608  0.32910035  0.14920448     0.06200
C329        C  0.79394756  0.36944366  0.14333453    -0.03700
C330        C  0.80739420  0.39246975  0.10875355    -0.08200
C331        C  0.83555798  0.37645443  0.07999370     0.05300
C332        C  0.85320441  0.33824268  0.08836863    -0.03200
Br333      Br  0.89674554  0.31636635  0.05505393    -0.02900
H334        H  0.85227820  0.28490829  0.12645599     0.09200
H335        H  0.79418334  0.42231109  0.10321878     0.07300
Br336      Br  0.75466840  0.39492585  0.17940875    -0.03300
C337        C  0.85066617  0.32055129  0.37694971    -0.10000
C338        C  0.81130481  0.32479648  0.35975101     0.06200
C339        C  0.78454084  0.35428003  0.37642376    -0.03700
C340        C  0.79717240  0.37848986  0.40965608    -0.08200
C341        C  0.83589084  0.37352083  0.42748540     0.05300
C342        C  0.86312544  0.34488832  0.41058474    -0.03200
Br343      Br  0.91743196  0.33876004  0.43219577    -0.02900
H344        H  0.87146784  0.29794032  0.36460317     0.09200
H345        H  0.77581344  0.40000257  0.42309771     0.07300
Br346      Br  0.72855761  0.35960360  0.35900974    -0.03300
C347        C  0.62002187  0.26783597  0.09600298    -0.10000
C348        C  0.60029101  0.23062355  0.08894632     0.06200
C349        C  0.60524724  0.19855856  0.11820983    -0.03700
C350        C  0.63246117  0.20309300  0.15185807    -0.08200
C351        C  0.65396116  0.23965522  0.15734393     0.05300
C352        C  0.64638533  0.27264166  0.13001826    -0.03200
Br353      Br  0.67527352  0.32318263  0.13473628    -0.02900
H354        H  0.61663821  0.29261364  0.07359927     0.09200
H355        H  0.63842891  0.17738629  0.17249888     0.07300
Br356      Br  0.57942013  0.14667387  0.11090923    -0.03300
C357        C  0.65876385  0.22250253  0.44373983    -0.10000
C358        C  0.61671465  0.22817190  0.43715261     0.06200
C359        C  0.60280729  0.23719326  0.39603943    -0.03700
C360        C  0.63080512  0.23930407  0.36279023    -0.08200
C361        C  0.67255171  0.23252284  0.36964617     0.05300
C362        C  0.68652196  0.22486884  0.41078989    -0.03200
Br363      Br  0.74350471  0.22026992  0.42488673    -0.02900
H364        H  0.67043200  0.21608933  0.47487407     0.09200
H365        H  0.61992536  0.24613994  0.33144394     0.07300
Br366      Br  0.54685129  0.24938336  0.38306127    -0.03300
C367        C  0.45433903  0.20933992  0.52851082    -0.10000
C368        C  0.48268082  0.19415293  0.49959934     0.06200
C369        C  0.46864047  0.16893475  0.96655928    -0.03700
C370        C  0.42706117  0.15895007  0.46441002    -0.08200
C371        C  0.39888121  0.17347051  0.49394927     0.05300
C372        C  0.41286997  0.19984853  0.52568869    -0.03200
Br373      Br  0.37704420  0.22667877  0.56445440    -0.02900
H374        H  0.46434619  0.22964785  0.55306016     0.09200
H375        H  0.41697301  0.13898566  0.93932586     0.07300
Br376      Br  0.50399178  0.14544681  0.92517859    -0.03300
C377        C  0.52630144  0.20556340  0.00423563     0.79400
N378        N  0.55011916  0.21182128  0.96988680    -0.78900
C379        C  0.58940379  0.22425322  0.97391842     0.81800
N380        N  0.60462547  0.23050028  0.51298774    -0.78900
C381        C  0.58142366  0.22436033  0.54760870     0.81900
N382        N  0.54206156  0.21206979  0.54330548    -0.80600
Fe383      Fe  0.77800087  0.20857850  0.69872918     1.65800
Fe384      Fe  0.78505274  0.20469256  0.80519359     1.73200
Fe385      Fe  0.73437483  0.28370376  0.75722134     1.54400
O386        O  0.76512077  0.31095870  0.70712065    -0.82500
O387        O  0.72916565  0.20755045  0.83322713    -0.80800
O388        O  0.80040616  0.26231237  0.67555080    -0.85000
O389        O  0.72061705  0.22066566  0.67498150    -0.79900
O390        O  0.77604342  0.30983140  0.79718796    -0.81600
O391        O  0.76944847  0.14729988  0.78400382    -0.84400
C392        C  0.68938638  0.24091709  0.68568115     0.96400
C393        C  0.79048732  0.29939363  0.67951134     1.03800
O394        O  0.76572386  0.23237521  0.75379878    -1.13400
O395        O  0.84359486  0.19885470  0.78354449    -0.75800
O396        O  0.83732400  0.19289780  0.71443672    -0.79300
O397        O  0.68856090  0.26355624  0.71772006    -0.80000
C398        C  0.85854679  0.19210095  0.74769539     0.95300
O399        O  0.75666669  0.15228721  0.71567928    -0.77900
O400        O  0.80232614  0.25815498  0.83423155    -0.83100
C401        C  0.70181512  0.23474473  0.83450232     0.97900
C402        C  0.79656993  0.29595692  0.82789190     1.03800
O403        O  0.69990521  0.26421766  0.80843896    -0.78800
C404        C  0.75733557  0.13219755  0.74967725     1.02100
C405        C  0.84437593  0.45914065  0.00054213     0.79400
N406        N  0.84474033  0.43722055  0.96463167    -0.78900
C407        C  0.84481057  0.39598317  0.96590914     0.81800
N408        N  0.84323556  0.37642294  0.00348182    -0.78900
C409        C  0.84272427  0.39801220  0.53969405     0.81900
N410        N  0.84248716  0.43932497  0.53796005    -0.80600
C411        C  0.72729691  0.95902397  0.75042131     0.79400
N412        N  0.72599087  0.94177552  0.78931929    -0.78900
C413        C  0.72419876  0.90082726  0.79402878     0.81800
N414        N  0.72518609  0.87701826  0.75966797    -0.78900
C415        C  0.72712610  0.89319535  0.72057962     0.81900
N416        N  0.72800967  0.93448658  0.71620532    -0.80600
Fe417      Fe  0.77957273  0.70126658  0.55448749     1.65800
Fe418      Fe  0.77928375  0.70820360  0.94781434     1.73200
Fe419      Fe  0.82907091  0.78064193  0.00558065     1.54400
O420        O  0.79193646  0.80622803  0.55145829    -0.82500
O421        O  0.83582538  0.71658183  0.92227258    -0.80800
O422        O  0.76050011  0.75376775  0.58243037    -0.85000
O423        O  0.83589810  0.70608823  0.58181326    -0.79900
O424        O  0.79508924  0.81055705  0.96034588    -0.81600
O425        O  0.79787093  0.64994313  0.96271065    -0.84400
C426        C  0.86567978  0.73040619  0.57898344     0.96400
C427        C  0.76834118  0.79150837  0.57936678     1.03800
O428        O  0.79599998  0.73011039  0.00261731    -1.13400
O429        O  0.72027531  0.69603120  0.96577604    -0.75800
O430        O  0.72046845  0.69195281  0.53528427    -0.79300
O431        O  0.86775047  0.75868081  0.55180985    -0.80000
C432        C  0.70228278  0.69004546  0.00038274     0.95300
O433        O  0.79764368  0.64560694  0.53254668    -0.77900
O434        O  0.75942221  0.76392681  0.92616651    -0.83100
C435        C  0.86806685  0.73615225  0.93047187     0.97900
C436        C  0.76954221  0.80067014  0.93242992     1.03800
O437        O  0.87083265  0.76049034  0.96112199    -0.78800
C438        C  0.80343489  0.63021537  0.49675305     1.02100
C439        C  0.03306072  0.69096476  0.75363628     0.79400
N440        N  0.01514375  0.69787372  0.79136328    -0.78900
C441        C  0.97567178  0.71026529  0.79320664     0.81800
N442        N  0.95409921  0.71588735  0.75734206    -0.78900
C443        C  0.97176804  0.70883969  0.71965305     0.81900
N444        N  0.01123433  0.69662052  0.71788082    -0.80600
C445        C  0.34157225  0.88744120  0.74248358     0.79400
N446        N  0.34405971  0.90861984  0.77886365    -0.78900
C447        C  0.34426383  0.95006430  0.77846320     0.81800
N448        N  0.34019115  0.97013847  0.74133619    -0.78900
C449        C  0.33702087  0.94950395  0.70489104     0.81900
N450        N  0.33787952  0.90828351  0.70566680    -0.80600
Fe451      Fe  0.27670692  0.14101061  0.54196011     1.65800
Fe452      Fe  0.28187750  0.14194496  0.93515162     1.73200
Fe453      Fe  0.23526917  0.06248974  0.98679045     1.54400
O454        O  0.26687435  0.03897811  0.53816886    -0.82500
O455        O  0.22546969  0.13534589  0.90808283    -0.80800
O456        O  0.30211455  0.08925771  0.56700285    -0.85000
O457        O  0.22067324  0.12734568  0.56730979    -0.79900
O458        O  0.27771840  0.03638754  0.94729034    -0.81600
O459        O  0.26342017  0.19922394  0.95395595    -0.84400
C460        C  0.18955809  0.10669525  0.55736544     0.96400
C461        C  0.29244341  0.05204104  0.56488451     1.03800
O462        O  0.26468025  0.11506699  0.98780698    -1.13400
O463        O  0.34077214  0.15223333  0.95546268    -0.75800
O464        O  0.33450632  0.15916481  0.52442015    -0.79300
O465        O  0.18883986  0.08306147  0.52605550    -0.80000
C466        C  0.35571262  0.16056557  0.99103607     0.95300
O467        O  0.25197566  0.19502921  0.52294975    -0.77900
O468        O  0.30188000  0.08805528  0.90930705    -0.83100
C469        C  0.19867494  0.10758781  0.90925579     0.97900
C470        C  0.29895051  0.05011828  0.91706826     1.03800
O471        O  0.19920586  0.07857648  0.93581740    -0.78800
C472        C  0.25135701  0.21460659  0.48864479     1.02100
C473        C  0.02629512  0.13920922  0.73773202     0.79400
N474        N  0.04922191  0.13372857  0.77274857    -0.78900
C475        C  0.08838726  0.12074835  0.76996204     0.81800
N476        N  0.10483464  0.11324318  0.73178387    -0.78900
C477        C  0.08245214  0.11943973  0.69647203     0.81900
N478        N  0.04335322  0.13292063  0.69943616    -0.80600
C479        C  0.21641280  0.38660298  0.99940431     0.79400
N480        N  0.21727737  0.40918202  0.96361785    -0.78900
C481        C  0.22098480  0.45019064  0.96480014     0.81800
N482        N  0.22327850  0.46911613  0.00233469    -0.78900
C483        C  0.22348443  0.44683647  0.53880773     0.81900
N484        N  0.22045939  0.40567102  0.53720058    -0.80600
Fe485      Fe  0.28180429  0.64242986  0.80108218     1.65800
Fe486      Fe  0.28309522  0.63816135  0.69404785     1.73200
Fe487      Fe  0.32536557  0.56073412  0.75199483     1.54400
O488        O  0.36480474  0.57955982  0.79872698    -0.82500
O489        O  0.26002642  0.58481034  0.67074826    -0.80800
O490        O  0.33873721  0.63560254  0.82713883    -0.85000
O491        O  0.26195119  0.59054088  0.83110229    -0.79900
O492        O  0.36861880  0.57683524  0.70775793    -0.81600
O493        O  0.22437434  0.65300317  0.71175271    -0.84400
C494        C  0.26505694  0.55256135  0.82563790     0.96400
C495        C  0.36596814  0.60816803  0.82523937     1.03800
O496        O  0.29697110  0.61382065  0.74901665    -1.13400
O497        O  0.30460771  0.69468307  0.70995112    -0.75800
O498        O  0.29955863  0.69888080  0.77917073    -0.79300
O499        O  0.28557854  0.53752977  0.79583103    -0.80000
C500        C  0.30733986  0.71454515  0.74364526     0.95300
O501        O  0.22284737  0.65164379  0.78146680    -0.77900
O502        O  0.33960519  0.62584216  0.66890855    -0.83100
C503        C  0.26612461  0.54724219  0.67745675     0.97900
C504        C  0.36861128  0.60136583  0.67683478     1.03800
O505        O  0.28955474  0.53438812  0.70636400    -0.78800
C506        C  0.20543506  0.65594013  0.74623400     1.02100
C507        C  0.53659499  0.63049630  0.00049735     0.79400
N508        N  0.51527986  0.62643690  0.96429242    -0.78900
C509        C  0.47604367  0.61352100  0.96505700     0.81800
N510        N  0.45757972  0.60561239  0.00222511    -0.78900
C511        C  0.47823265  0.61101064  0.53828170     0.81900
N512        N  0.51766175  0.62374016  0.53724778    -0.80600
C513        C  0.40973993  0.64662239  0.87465712    -0.10000
C514        C  0.39909854  0.60901349  0.85686536     0.06200
C515        C  0.41663441  0.57287166  0.87360625    -0.03700
C516        C  0.44287384  0.57501175  0.90814562    -0.08200
C517        C  0.45214397  0.61248052  0.92632520     0.05300
C518        C  0.43597711  0.64851580  0.90908704    -0.03200
Br519      Br  0.44662295  0.70065992  0.93358484    -0.02900
H520        H  0.39654553  0.67465628  0.86261446     0.09200
H521        H  0.45510384  0.54718745  0.92171868     0.07300
Br522      Br  0.40324894  0.51926201  0.85412566    -0.03300
C523        C  0.43003641  0.57197135  0.58249373    -0.10000
C524        C  0.45635252  0.60544821  0.57830589     0.06200
C525        C  0.45690936  0.63531286  0.60996225    -0.03700
C526        C  0.42964225  0.63237028  0.64365197    -0.08200
C527        C  0.40225737  0.59976191  0.64663793     0.05300
C528        C  0.40321675  0.56889899  0.61634794    -0.03200
Br529      Br  0.36554763  0.52419062  0.61748124    -0.02900
H530        H  0.42912594  0.54894211  0.55836639     0.09200
H531        H  0.42849403  0.65655005  0.66654160     0.07300
Br532      Br  0.49030843  0.68322657  0.60660254    -0.03300
C533        C  0.26458148  0.48545152  0.86117719    -0.10000
C534        C  0.24723393  0.52445284  0.85719518     0.06200
C535        C  0.21756843  0.53679911  0.88679649    -0.03700
C536        C  0.20828806  0.51138661  0.92085887    -0.08200
C537        C  0.22756821  0.47354727  0.92589446     0.05300
C538        C  0.25544035  0.46025142  0.89519833    -0.03200
Br539      Br  0.28653934  0.41073608  0.90027820    -0.02900
H540        H  0.28764281  0.47535157  0.83923413     0.09200
H541        H  0.18645447  0.52158395  0.94405362     0.07300
Br542      Br  0.18850001  0.58759891  0.88322381    -0.03300
C543        C  0.20651066  0.50297755  0.58684066    -0.10000
C544        C  0.22929922  0.46770828  0.57902023     0.06200
C545        C  0.25957658  0.45545554  0.60792260    -0.03700
C546        C  0.26851807  0.48016456  0.64216191    -0.08200
C547        C  0.24819990  0.51745638  0.64801624     0.05300
C548        C  0.21517250  0.52752050  0.62128447    -0.03200
Br549      Br  0.18037958  0.57389269  0.62993784    -0.02900
H550        H  0.18237091  0.51198049  0.56544235     0.09200
H551        H  0.29365155  0.47151135  0.66244766     0.07300
Br552      Br  0.29352522  0.40845102  0.59965845    -0.03300
C553        C  0.22741622  0.27440278  0.52877892    -0.10000
C554        C  0.23646411  0.25729407  0.48954822     0.06200
C555        C  0.23303132  0.28244371  0.95274603    -0.03700
C556        C  0.22416459  0.32379831  0.95703103    -0.08200
C557        C  0.21811981  0.34147276  0.99665979     0.05300
C558        C  0.21786269  0.31551525  0.53293953    -0.03200
Br559      Br  0.20388700  0.33291705  0.58854518    -0.02900
H560        H  0.22855020  0.25591319  0.55702544     0.09200
H561        H  0.22324783  0.34237534  0.92885322     0.07300
Br562      Br  0.23986335  0.26320591  0.89637724    -0.03300
C563        C  0.14173492  0.07379008  0.60703738    -0.10000
C564        C  0.15404914  0.10911959  0.58551578     0.06200
C565        C  0.13758650  0.14708731  0.59722147    -0.03700
C566        C  0.11140380  0.14951711  0.63175984    -0.08200
C567        C  0.10202207  0.11460976  0.65540010     0.05300
C568        C  0.11621975  0.07638298  0.64210767    -0.03200
Br569      Br  0.10301504  0.02732654  0.67219802    -0.02900
H570        H  0.15436043  0.04448701  0.59849037     0.09200
H571        H  0.10042038  0.17904936  0.64171966     0.07300
Br572      Br  0.15135306  0.19658740  0.56810430    -0.03300
C573        C  0.13423142  0.07978614  0.81550367    -0.10000
C574        C  0.11351128  0.11650341  0.80793698     0.06200
C575        C  0.11887674  0.14932018  0.83560100    -0.03700
C576        C  0.14555113  0.14530557  0.86959225    -0.08200
C577        C  0.16662764  0.10872975  0.87696089     0.05300
C578        C  0.16048961  0.07557600  0.84985721    -0.03200
Br579      Br  0.19026776  0.02541626  0.85579531    -0.02900
H580        H  0.13053400  0.05454489  0.79415428     0.09200
H581        H  0.15071463  0.17121213  0.88975511     0.07300
Br582      Br  0.09366020  0.20144832  0.82622896    -0.03300
C583        C  0.35152289  0.00784500  0.65760813    -0.09200
C584        C  0.32936807  0.97209912  0.66549343     0.06200
C585        C  0.29822588  0.96074871  0.63736907    -0.03700
C586        C  0.28864970  0.98607047  0.60337329    -0.08200
C587        C  0.30921706  0.02314559  0.59662545     0.05300
C588        C  0.34215989  0.03316113  0.62346747    -0.03200
Br589      Br  0.37607353  0.08048014  0.61600777    -0.02900
H590        H  0.37598585  0.01648791  0.67860392     0.09200
H591        H  0.26328027  0.97760161  0.58347648     0.07300
Br592      Br  0.26413205  0.91386150  0.64593616    -0.03300
C593        C  0.34230639  0.03799496  0.85437043    -0.10000
C594        C  0.31910719  0.02140736  0.88750403     0.06200
C595        C  0.31230826  0.97874112  0.88809146    -0.03700
C596        C  0.32356198  0.95532172  0.85341843    -0.08200
C597        C  0.34221813  0.97322025  0.81815114     0.05300
C598        C  0.35411016  0.01444932  0.82022424    -0.03200
Br599      Br  0.38649066  0.04081652  0.77770475    -0.02900
H600        H  0.35004009  0.07006836  0.85393533     0.09200
H601        H  0.31551434  0.92332188  0.85319386     0.07300
Br602      Br  0.28663530  0.94997795  0.93371688    -0.03300
C603        C  0.33947604  0.77537983  0.77594968    -0.10000
C604        C  0.31923509  0.75795142  0.74163592     0.06200
C605        C  0.30897181  0.78298312  0.70704862    -0.03700
C606        C  0.31828380  0.82433818  0.70774861    -0.08200
C607        C  0.33710543  0.84236307  0.74260562     0.05300
C608        C  0.34861649  0.81703997  0.77674329    -0.03200
Br609      Br  0.37786738  0.83627793  0.82488456    -0.02900
H610        H  0.34813820  0.75647560  0.80250676     0.09200
H611        H  0.30910750  0.84270807  0.68109486     0.07300
Br612      Br  0.27878238  0.76428081  0.65920608    -0.03300
C613        C  0.10001439  0.69605072  0.71800459    -0.10000
C614        C  0.07656542  0.67977939  0.75097960     0.06200
C615        C  0.09542808  0.65402132  0.78076859    -0.03700
C616        C  0.13728974  0.64657646  0.77818619    -0.08200
C617        C  0.16106221  0.66382423  0.74598731     0.05300
C618        C  0.14187098  0.68832710  0.71519323    -0.03200
Br619      Br  0.17096811  0.71440786  0.67012521    -0.02900
H620        H  0.08593175  0.71586929  0.69482350     0.09200
H621        H  0.15130172  0.62672155  0.80134517     0.07300
Br622      Br  0.06567010  0.62599300  0.82411931    -0.03300
C623        C  0.64571851  0.65249890  0.96714381    -0.10000
C624        C  0.65899367  0.67772801  0.99971483     0.06200
C625        C  0.63147635  0.68813098  0.53206214    -0.03700
C626        C  0.59193443  0.67220846  0.53160764    -0.08200
C627        C  0.57892985  0.64594366  0.99957657     0.05300
C628        C  0.60627417  0.63646565  0.96682789    -0.03200
Br629      Br  0.59330612  0.59952313  0.92233675    -0.02900
H630        H  0.66666186  0.64393867  0.94242781     0.09200
H631        H  0.57120273  0.68025436  0.55663510     0.07300
Br632      Br  0.64525757  0.72465036  0.57664114    -0.03300
C633        C  0.91699125  0.68930788  0.61752597    -0.10000
C634        C  0.89767132  0.72694687  0.61089245     0.06200
C635        C  0.90438922  0.75900096  0.63914035    -0.03700
C636        C  0.92936886  0.75269586  0.67403717    -0.08200
C637        C  0.94823194  0.71493733  0.68101729     0.05300
C638        C  0.94255340  0.68322237  0.65212107    -0.03200
Br639      Br  0.96578431  0.63007212  0.66055262    -0.02900
H640        H  0.91114944  0.66425551  0.59645959     0.09200
H641        H  0.93342854  0.77710325  0.69630582     0.07300
Br642      Br  0.87680312  0.81048128  0.63399461    -0.03300
C643        C  0.90958330  0.68987694  0.88715194    -0.10000
C644        C  0.90293129  0.72957624  0.90198575     0.06200
C645        C  0.92513679  0.76217237  0.88413566    -0.03700
C646        C  0.95091617  0.75502451  0.84990679    -0.08200
C647        C  0.95528543  0.71572939  0.83363872     0.05300
C648        C  0.93554801  0.68280290  0.85330176    -0.03200
Br649      Br  0.94047751  0.62823330  0.83270524    -0.02900
H650        H  0.89289921  0.66446304  0.90063668     0.09200
H651        H  0.96600630  0.78047737  0.83465037     0.07300
Br652      Br  0.91791529  0.81743646  0.90175126    -0.03300
C653        C  0.74669654  0.80013916  0.65247437    -0.10000
C654        C  0.75217039  0.81800270  0.61282382     0.06200
C655        C  0.74549761  0.86017273  0.60803643    -0.03700
C656        C  0.73542459  0.88364988  0.64312381    -0.08200
C657        C  0.73251269  0.86610987  0.68358156     0.05300
C658        C  0.73742392  0.82323891  0.68755047    -0.03200
Br659      Br  0.73474285  0.79222199  0.73897768    -0.02900
H660        H  0.75173325  0.76782254  0.65689668     0.09200
H661        H  0.73070845  0.91587386  0.63864527     0.07300
Br662      Br  0.74883889  0.88731218  0.55460266    -0.03300
C663        C  0.75877328  0.89474637  0.86280597    -0.10000
C664        C  0.72789871  0.88160016  0.83567710     0.06200
C665        C  0.70570531  0.84627906  0.84588127    -0.03700
C666        C  0.71789215  0.82201875  0.87971863    -0.08200
C667        C  0.75203417  0.83240540  0.90419738     0.05300
C668        C  0.77094441  0.87071650  0.89706010    -0.03200
Br669      Br  0.81568971  0.89116211  0.92974732    -0.02900
H670        H  0.77555930  0.92237020  0.85561501     0.09200
H671        H  0.70155952  0.79387247  0.88566081     0.07300
Br672      Br  0.65879293  0.82961721  0.81427636    -0.03300
C673        C  0.82245246  0.52115892  0.96164022    -0.10000
C674        C  0.83938431  0.50411961  0.49836327     0.06200
C675        C  0.84813817  0.52980399  0.53249148    -0.03700
C676        C  0.83707540  0.57082272  0.53052996    -0.08200
C677        C  0.81766610  0.58746973  0.49498216     0.05300
C678        C  0.81167150  0.56225700  0.95945078    -0.03200
Br679      Br  0.78630965  0.58049561  0.90824018    -0.02900
H680        H  0.81582554  0.50221920  0.93485370     0.09200
H681        H  0.84351663  0.58980492  0.55735386     0.07300
Br682      Br  0.87599529  0.51187412  0.58239677    -0.03300
C683        C  0.91775807  0.15453507  0.77631369    -0.10000
C684        C  0.90200606  0.18065782  0.74527471     0.06200
C685        C  0.92764237  0.19370112  0.71234456    -0.03700
C686        C  0.96794466  0.17977285  0.71047148    -0.08200
C687        C  0.98355232  0.15312284  0.74119254     0.05300
C688        C  0.95795038  0.14053186  0.77451916    -0.03200
Br689      Br  0.97434179  0.10191840  0.81694365    -0.02900
H690        H  0.89823976  0.14386770  0.80155215     0.09200
H691        H  0.98737892  0.19033329  0.68513327     0.07300
Br692      Br  0.91033177  0.23230516  0.67059401    -0.03300
C693        C  0.71884273  0.02758455  0.78142696    -0.10000
C694        C  0.73053278  0.00408355  0.74666205     0.06200
C695        C  0.74714421  0.02437180  0.71119249    -0.03700
C696        C  0.75430461  0.06629277  0.71263274    -0.08200
C697        C  0.74511921  0.08897117  0.74851363     0.05300
C698        C  0.72570439  0.06951304  0.78253949    -0.03200
Br699      Br  0.70610713  0.09861043  0.83053729    -0.02900
H700        H  0.70454277  0.01325694  0.80837497     0.09200
H701        H  0.76858111  0.08104344  0.68588906     0.07300
Br702      Br  0.76321437  0.99785937  0.66033959    -0.03300
C703        C  0.83946104  0.31501232  0.62206728    -0.10000
C704        C  0.80849147  0.32907147  0.64902398     0.06200
C705        C  0.79392605  0.36940977  0.64318108    -0.03700
C706        C  0.80739122  0.39249133  0.60865293    -0.08200
C707        C  0.83562136  0.37654966  0.57992758     0.05300
C708        C  0.85329474  0.33834388  0.58826951    -0.03200
Br709      Br  0.89693865  0.31660897  0.55499910    -0.02900
H710        H  0.85234987  0.28493845  0.62626960     0.09200
H711        H  0.79414904  0.42232146  0.60313075     0.07300
Br712      Br  0.75457734  0.39483481  0.67922189    -0.03300
C713        C  0.85077666  0.32051712  0.87684442    -0.10000
C714        C  0.81144096  0.32484214  0.85960105     0.06200
C715        C  0.78468365  0.35430984  0.87629649    -0.03700
C716        C  0.79727438  0.37839951  0.90963225    -0.08200
C717        C  0.83595923  0.37334609  0.92751521     0.05300
C718        C  0.86321093  0.34475983  0.91056214    -0.03200
Br719      Br  0.91750762  0.33859044  0.93218902    -0.02900
H720        H  0.87157291  0.29791657  0.86446809     0.09200
H721        H  0.77591601  0.39990471  0.92308747     0.07300
Br722      Br  0.72876023  0.35977467  0.85873387    -0.03300
C723        C  0.61962726  0.26807307  0.59633616    -0.10000
C724        C  0.60016156  0.23076148  0.58907615     0.06200
C725        C  0.60541767  0.19855225  0.61810986    -0.03700
C726        C  0.63263409  0.20308360  0.65175043    -0.08200
C727        C  0.65386630  0.23976822  0.65744897     0.05300
C728        C  0.64600902  0.27286471  0.63034582    -0.03200
Br729      Br  0.67456707  0.32356460  0.63532037    -0.02900
H730        H  0.61603267  0.29295143  0.57408661     0.09200
H731        H  0.63883199  0.17728955  0.67220330     0.07300
Br732      Br  0.58002780  0.14650455  0.61045560    -0.03300
C733        C  0.65887821  0.22264879  0.94362932    -0.10000
C734        C  0.61681089  0.22818625  0.93703676     0.06200
C735        C  0.60287783  0.23722368  0.89593625    -0.03700
C736        C  0.63087088  0.23944826  0.86269538    -0.08200
C737        C  0.67262692  0.23276580  0.86955963     0.05300
C738        C  0.68662633  0.22513112  0.91068701    -0.03200
Br739      Br  0.74363051  0.22067165  0.92473642    -0.02900
H740        H  0.67056714  0.21623632  0.97475537     0.09200
H741        H  0.61998034  0.24626574  0.83134876     0.07300
Br742      Br  0.54688996  0.24926196  0.88296063    -0.03300
C743        C  0.45456010  0.20889580  0.02852138    -0.10000
C744        C  0.48285175  0.19385532  0.99947465     0.06200
C745        C  0.46852567  0.16906580  0.46680112    -0.03700
C746        C  0.42715875  0.15888070  0.96415646    -0.08200
C747        C  0.39905291  0.17325945  0.99383415     0.05300
C748        C  0.41309425  0.19942242  0.02571729    -0.03200
Br749      Br  0.37728974  0.22598653  0.06469276    -0.02900
H750        H  0.46459969  0.22907216  0.05317119     0.09200
H751        H  0.41695118  0.13890387  0.43967762     0.07300
Br752      Br  0.50393828  0.14544535  0.42555623    -0.03300
loop_ 
_geom_bond_atom_site_label_1 
_geom_bond_atom_site_label_2 
_geom_bond_distance 
_geom_bond_site_symmetry_2 
_ccdc_geom_bond_type 
C1            N2   1.359       .  A
C1          N382   1.364       .  A
C1          C368   1.482       .  S
N2            C3   1.356       .  A
C3          N380   1.357       .  A
C3          C358   1.485       .  S
N4            C5   1.354       .  A
N4          C379   1.356   1_554  A
C5            N6   1.358       .  A
C5          C348   1.475       .  S
N6          C377   1.364       .  A
Fe7          O23   2.044       .  S
Fe7          O13   2.063       .  S
Fe7          O20   2.070       .  S
Fe7          O12   2.043       .  S
Fe7          O18   1.971       .  S
Fe8          O11   2.040       .  S
Fe8          O15   2.072       .  S
Fe8          O19   2.048       .  S
Fe8          O24   2.071       .  S
Fe8          O18   1.972       .  S
Fe9          O27   2.083       .  S
Fe9          O14   2.060       .  S
Fe9          O21   2.071       .  S
Fe9          O10   2.086       .  S
Fe9          O18   1.976       .  S
O10          C17   1.271       .  A
O11          C25   1.265       .  A
O12          C17   1.267       .  A
O13          C16   1.268       .  A
O14          C26   1.269       .  A
O15          C28   1.270       .  A
C16         C351   1.472       .  S
C16          O21   1.269       .  A
C17         C328   1.493       .  S
O19          C22   1.265       .  A
O20          C22   1.268       .  A
C22         C308   1.475       .  S
O23          C28   1.265       .  A
O24          C26   1.270       .  A
C25         C361   1.473       .  S
C25          O27   1.272       .  A
C26         C338   1.476       .  S
C28         C321   1.476       .  S
C29          N30   1.358       .  A
C29         N410   1.358       .  A
C29         C674   1.481       .  S
N30          C31   1.354       .  A
C31          N32   1.356       .  A
C31         C341   1.467       .  S
N32         C409   1.359       .  A
C33          N34   1.357       .  A
C33         N408   1.359       .  A
C33         C331   1.478       .  S
N34         C405   1.358       .  A
C35          N36   1.360       .  A
C35          N40   1.362       .  A
C35         C318   1.487   1_565  S
N36          C37   1.353       .  A
C37          N38   1.352       .  A
C37         C288   1.471       .  S
N38          C39   1.353       .  A
C39          N40   1.362       .  A
C39         C281   1.494       .  S
Fe41         O57   2.049       .  S
Fe41         O47   2.047       .  S
Fe41         O54   2.054       .  S
Fe41         O46   2.044       .  S
Fe41        O428   1.970       .  S
Fe42         O45   2.040       .  S
Fe42         O49   2.058       .  S
Fe42         O53   2.053       .  S
Fe42         O58   2.054       .  S
Fe42         O52   1.973       .  S
Fe43         O61   2.082       .  S
Fe43         O48   2.064       .  S
Fe43        O431   2.062       .  S
Fe43        O420   2.075       .  S
Fe43         O52   1.985       .  S
O44        Fe419   2.075       .  S
O44          C51   1.272       .  A
O45          C59   1.265       .  A
O46          C51   1.269       .  A
O47          C50   1.264       .  A
O48          C60   1.266       .  A
O49         C438   1.266       .  A
C50         C258   1.465       .  S
C50          O55   1.266       .  A
C51         C278   1.480       .  S
O52        Fe417   1.970       .  S
O53          C56   1.265       .  A
O54         C432   1.264       .  A
O55        Fe419   2.062       .  S
C56         C248   1.474       .  S
C56         O430   1.264       .  A
O57          C62   1.267   1_554  A
O58          C60   1.268       .  A
C59         C268   1.476       .  S
C59          O61   1.271       .  A
C60         C291   1.486       .  S
C62         C301   1.480       .  S
C62         O425   1.266       .  A
C63          N64   1.360       .  A
C63          N68   1.357       .  A
C63         C238   1.473       .  S
N64          C65   1.356   1_455  A
C65          N66   1.356       .  A
C65         C271   1.465       .  S
N66          C67   1.356       .  A
C67          N68   1.354   1_655  A
C67         C261   1.465       .  S
C69          N70   1.360       .  A
C69          N74   1.360       .  A
C69         C231   1.487       .  S
N70          C71   1.360       .  A
C71          N72   1.357       .  A
C71         C221   1.484       .  S
N72          C73   1.355       .  A
C73          N74   1.354       .  A
C73         C208   1.476       .  S
Fe75         O91   2.038       .  S
Fe75         O81   2.052       .  S
Fe75         O88   2.059       .  S
Fe75         O80   2.048       .  S
Fe75        O462   1.966   1_554  S
Fe76         O79   2.051       .  S
Fe76         O83   2.070       .  S
Fe76         O87   2.063       .  S
Fe76         O92   2.065       .  S
Fe76         O86   1.971       .  S
Fe77         O95   2.076       .  S
Fe77         O82   2.065       .  S
Fe77        O465   2.076       .  S
Fe77        O454   2.074       .  S
Fe77         O86   1.975       .  S
O78        Fe453   2.073   1_554  S
O78          C85   1.271       .  A
O79          C93   1.266       .  A
O80          C85   1.265       .  A
O81          C84   1.266       .  A
O82          C94   1.269       .  A
O83         C472   1.268       .  A
C84         C188   1.472       .  S
C84          O89   1.270       .  A
C85         C211   1.487       .  S
O86        Fe451   1.964       .  S
O87          C90   1.268       .  A
O88         C466   1.266   1_554  A
O89        Fe453   2.077   1_554  S
C90         C371   1.483       .  S
C90         O464   1.266       .  A
O91          C96   1.265   1_554  A
O92          C94   1.272       .  A
C93         C201   1.472       .  S
C93          O95   1.270       .  A
C94         C218   1.492       .  S
C96         C178   1.485       .  S
C96         O459   1.267       .  A
C97          N98   1.356       .  A
C97         N102   1.361       .  A
C97         C311   1.477   1_455  S
N98          C99   1.354       .  A
C99         N100   1.356       .  A
C99         C198   1.470       .  S
N100        C101   1.358       .  A
C101        N102   1.358       .  A
C101        C191   1.469       .  S
C103        N104   1.356       .  A
C103        N484   1.358       .  A
C103        C181   1.485       .  S
N104        C105   1.353       .  A
C105        N106   1.356       .  A
C105        C161   1.469       .  S
N106        C483   1.357       .  A
C107        N108   1.357       .  A
C107        N482   1.357       .  A
C107        C168   1.473       .  S
N108        C479   1.358   1_554  A
Fe109       O125   2.050       .  S
Fe109       O115   2.054       .  S
Fe109       O122   2.060       .  S
Fe109       O114   2.051       .  S
Fe109       O120   1.977       .  S
Fe110       O113   2.052       .  S
Fe110       O117   2.064       .  S
Fe110       O121   2.052       .  S
Fe110       O126   2.059       .  S
Fe110       O120   1.972       .  S
Fe111       O129   2.066       .  S
Fe111       O116   2.065       .  S
Fe111       O123   2.053       .  S
Fe111       O112   2.072       .  S
Fe111       O120   1.975       .  S
O112        C119   1.270       .  A
O113        C127   1.265       .  A
O114        C119   1.269       .  A
O115        C118   1.265       .  A
O116        C128   1.268       .  A
O117        C130   1.268       .  A
C118        C158   1.479       .  S
C118        O123   1.267       .  A
C119        C138   1.481       .  S
O121        C124   1.265       .  A
O122        C124   1.267       .  A
C124        C228   1.477       .  S
O125        C130   1.267       .  A
O126        C128   1.268       .  A
C127        C171   1.484       .  S
C127        O129   1.269       .  A
C128        C151   1.465       .  S
C130        C241   1.476       .  S
C131        N132   1.357       .  A
C131        N512   1.360       .  A
C131        C251   1.477       .  S
N132        C133   1.354       .  A
C133        N134   1.354       .  A
C133        C141   1.463       .  S
N134        C511   1.357       .  A
C135        N136   1.358       .  A
C135        N510   1.357       .  A
C135        C148   1.475       .  S
N136        C507   1.361       .  A
C137        C138   1.407       .  A
C137        C142   1.396       .  A
C137        H144   1.084       .  S
C138        C139   1.417       .  A
C139        C140   1.399       .  A
C139       Br146   1.922       .  S
C140        C141   1.398       .  A
C140        H145   1.084       .  S
C141        C142   1.404       .  A
C142       Br143   1.920       .  S
C147        C148   1.403       .  A
C147        C152   1.395       .  A
C147        H154   1.084       .  S
C148        C149   1.414       .  A
C149        C150   1.400       .  A
C149       Br156   1.919       .  S
C150        C151   1.400       .  A
C150        H155   1.084       .  S
C151        C152   1.406       .  A
C152       Br153   1.918       .  S
C157        C158   1.405       .  A
C157        C162   1.392       .  A
C157        H164   1.083       .  S
C158        C159   1.416       .  A
C159        C160   1.398       .  A
C159       Br166   1.922       .  S
C160        C161   1.401       .  A
C160        H165   1.084       .  S
C161        C162   1.410       .  A
C162       Br163   1.923       .  S
C167        C168   1.401       .  A
C167        C172   1.397       .  A
C167        H174   1.084       .  S
C168        C169   1.410       .  A
C169        C170   1.397       .  A
C169       Br176   1.921       .  S
C170        C171   1.407       .  A
C170        H175   1.083       .  S
C171        C172   1.415       .  A
C172       Br173   1.923       .  S
C177        C178   1.408   1_554  A
C177        C182   1.393       .  A
C177        H184   1.083       .  S
C178        C555   1.413       .  A
C179        C180   1.396       .  A
C179        C554   1.413       .  A
C179       Br186   1.924       .  S
C180        C181   1.410       .  A
C180        H185   1.083       .  S
C181        C558   1.413       .  A
C182        C557   1.413   1_554  A
C182       Br183   1.923       .  S
C187        C188   1.403       .  A
C187        C192   1.400       .  A
C187        H194   1.084       .  S
C188        C189   1.411       .  A
C189        C190   1.399       .  A
C189       Br196   1.919       .  S
C190        C191   1.401       .  A
C190        H195   1.084       .  S
C191        C192   1.407       .  A
C192       Br193   1.918       .  S
C197        C198   1.402       .  A
C197        C202   1.399       .  A
C197        H204   1.084       .  S
C198        C199   1.409       .  A
C199        C200   1.398       .  A
C199       Br206   1.920       .  S
C200        C201   1.403       .  A
C200        H205   1.084       .  S
C201        C202   1.411       .  A
C202       Br203   1.921       .  S
C207        C208   1.401   1_545  A
C207        C212   1.398       .  A
C207        H214   1.084       .  S
C208        C209   1.411       .  A
C209        C210   1.397       .  A
C209       Br216   1.920       .  S
C210        C211   1.407   1_565  A
C210        H215   1.083       .  S
C211        C212   1.418       .  A
C212       Br213   1.923       .  S
C217        C218   1.408       .  A
C217        C222   1.395       .  A
C217        H224   1.083       .  S
C218        C219   1.418   1_545  A
C219        C220   1.402       .  A
C219       Br226   1.922       .  S
C220        C221   1.405       .  A
C220        H225   1.083       .  S
C221        C222   1.411   1_565  A
C222       Br223   1.922       .  S
C227        C228   1.405       .  A
C227        C232   1.401       .  A
C227        H234   1.084       .  S
C228        C229   1.410       .  A
C229        C230   1.392       .  A
C229       Br236   1.923       .  S
C230        C231   1.406       .  A
C230        H235   1.080       .  S
C231        C232   1.415       .  A
C232       Br233   1.921       .  S
C237        C238   1.404       .  A
C237        C242   1.396       .  A
C237        H244   1.084       .  S
C238        C239   1.409       .  A
C239        C240   1.395       .  A
C239       Br246   1.921       .  S
C240        C241   1.405       .  A
C240        H245   1.083       .  S
C241        C242   1.412       .  A
C242       Br243   1.920       .  S
C247        C248   1.403       .  A
C247        C252   1.395       .  A
C247        H254   1.084       .  S
C248        C625   1.410       .  A
C249        C250   1.397       .  A
C249        C624   1.410   1_554  A
C249       Br256   1.922       .  S
C250        C627   1.405   1_554  A
C250        H255   1.082       .  S
C251        C252   1.413       .  A
C251        C626   1.405       .  A
C252       Br253   1.922       .  S
C257        C258   1.402       .  A
C257        C262   1.398       .  A
C257        H264   1.084       .  S
C258        C259   1.409       .  A
C259        C260   1.396       .  A
C259       Br266   1.921       .  S
C260        C261   1.400       .  A
C260        H265   1.084       .  S
C261        C262   1.409       .  A
C262       Br263   1.920       .  S
C267        C268   1.407       .  A
C267        C272   1.395       .  A
C267        H274   1.084       .  S
C268        C269   1.411       .  A
C269        C270   1.401       .  A
C269       Br276   1.918       .  S
C270        C271   1.402       .  A
C270        H275   1.083       .  S
C271        C272   1.403       .  A
C272       Br273   1.920       .  S
C277        C278   1.401       .  A
C277        C282   1.390       .  A
C277        H284   1.081       .  S
C278        C279   1.408       .  A
C279        C280   1.404       .  A
C279       Br286   1.920       .  S
C280        C281   1.412       .  A
C280        H285   1.077       .  S
C281        C282   1.421       .  A
C282       Br283   1.926       .  S
C287        C288   1.402       .  A
C287        C292   1.400       .  A
C287        H294   1.084       .  S
C288        C289   1.405       .  A
C289        C290   1.394       .  A
C289       Br296   1.920       .  S
C290        C291   1.407       .  A
C290        H295   1.083       .  S
C291        C292   1.419       .  A
C292       Br293   1.923       .  S
C297        C302   1.395       .  A
C297        C674   1.407       .  A
C297        H304   1.083       .  S
C298        C405   1.481   1_556  S
C298        C299   1.412   1_556  A
C298        C673   1.407       .  A
C299        C300   1.395       .  A
C299       Br306   1.922       .  S
C300        C301   1.406   1_554  A
C300        H305   1.084       .  S
C301        C678   1.413       .  A
C302        C677   1.413       .  A
C302       Br303   1.923       .  S
C307        C308   1.403       .  A
C307        C312   1.395       .  A
C307        H314   1.084       .  S
C308        C309   1.409       .  A
C309        C310   1.398       .  A
C309       Br316   1.916       .  S
C310        C311   1.404       .  A
C310        H315   1.084       .  S
C311        C312   1.413       .  A
C312       Br313   1.923       .  S
C317        C318   1.409       .  A
C317        C322   1.395       .  A
C317        H324   1.083       .  S
C318        C319   1.417       .  A
C319        C320   1.397       .  A
C319       Br326   1.921   1_545  S
C320        C321   1.403       .  A
C320        H325   1.084       .  S
C321        C322   1.407       .  A
C322       Br323   1.922       .  S
C327        C328   1.410       .  A
C327        C332   1.393       .  A
C327        H334   1.081       .  S
C328        C329   1.418       .  A
C329        C330   1.403       .  A
C329       Br336   1.922       .  S
C330        C331   1.406       .  A
C330        H335   1.084       .  S
C331        C332   1.404       .  A
C332       Br333   1.921       .  S
C337        C338   1.407       .  A
C337        C342   1.404       .  A
C337        H344   1.084       .  S
C338        C339   1.412       .  A
C339        C340   1.393       .  A
C339       Br346   1.923       .  S
C340        C341   1.398       .  A
C340        H345   1.084       .  S
C341        C342   1.406       .  A
C342       Br343   1.917       .  S
C347        C348   1.402       .  A
C347        C352   1.397       .  A
C347        H354   1.084       .  S
C348        C349   1.410       .  A
C349        C350   1.404       .  A
C349       Br356   1.918       .  S
C350        C351   1.404       .  A
C350        H355   1.084       .  S
C351        C352   1.406       .  A
C352       Br353   1.918       .  S
C357        C358   1.405       .  A
C357        C362   1.391       .  A
C357        H364   1.083       .  S
C358        C359   1.417       .  A
C359        C360   1.403       .  A
C359       Br366   1.919       .  S
C360        C361   1.402       .  A
C360        H365   1.083       .  S
C361        C362   1.410       .  A
C362       Br363   1.925       .  S
C367        C368   1.403       .  A
C367        C372   1.396       .  A
C367        H374   1.084       .  S
C368        C745   1.415       .  A
C369        C744   1.415       .  A
C369        C746   1.400       .  A
C369       Br376   1.922       .  S
C370        C371   1.405       .  A
C370        C745   1.400       .  A
C370        H751   1.084       .  S
C371        C372   1.414       .  A
C372       Br373   1.923       .  S
H375        C746   1.084       .  S
C377        N378   1.359   1_554  A
C377        C744   1.482   1_554  S
N378        C379   1.356       .  A
C379        C734   1.485       .  S
N380        C381   1.354       .  A
C381        N382   1.358       .  A
C381        C724   1.475       .  S
Fe383       O399   2.045       .  S
Fe383       O389   2.063       .  S
Fe383       O396   2.069       .  S
Fe383       O388   2.044       .  S
Fe383       O394   1.970       .  S
Fe384       O387   2.039       .  S
Fe384       O391   2.071       .  S
Fe384       O395   2.047       .  S
Fe384       O400   2.071       .  S
Fe384       O394   1.972       .  S
Fe385       O403   2.083       .  S
Fe385       O390   2.060       .  S
Fe385       O397   2.071       .  S
Fe385       O386   2.085       .  S
Fe385       O394   1.976       .  S
O386        C393   1.271       .  A
O387        C401   1.265       .  A
O388        C393   1.267       .  A
O389        C392   1.268       .  A
O390        C402   1.269       .  A
O391        C404   1.270       .  A
C392        C727   1.472       .  S
C392        O397   1.269       .  A
C393        C704   1.493       .  S
O395        C398   1.265       .  A
O396        C398   1.268       .  A
C398        C684   1.474       .  S
O399        C404   1.265       .  A
O400        C402   1.269       .  A
C401        C737   1.472       .  S
C401        O403   1.272       .  A
C402        C714   1.475       .  S
C404        C697   1.475       .  S
C405        N406   1.358   1_554  A
N406        C407   1.354       .  A
C407        N408   1.356   1_556  A
C407        C717   1.467       .  S
C409        N410   1.357       .  A
C409        C707   1.478       .  S
C411        N412   1.360       .  A
C411        N416   1.362       .  A
C411        C694   1.487   1_565  S
N412        C413   1.353       .  A
C413        N414   1.352       .  A
C413        C664   1.471       .  S
N414        C415   1.353       .  A
C415        N416   1.362       .  A
C415        C657   1.494       .  S
Fe417       O433   2.049       .  S
Fe417       O423   2.047       .  S
Fe417       O430   2.054       .  S
Fe417       O422   2.044       .  S
Fe418       O421   2.041       .  S
Fe418       O425   2.058       .  S
Fe418       O429   2.054       .  S
Fe418       O434   2.055       .  S
Fe418       O428   1.974   1_556  S
Fe419       O437   2.082   1_554  S
Fe419       O424   2.064   1_554  S
Fe419       O428   1.985       .  S
O420        C427   1.272       .  A
O421        C435   1.265       .  A
O422        C427   1.268       .  A
O423        C426   1.264       .  A
O424        C436   1.266       .  A
C426        C634   1.464       .  S
C426        O431   1.267       .  A
C427        C654   1.480       .  S
O429        C432   1.265   1_556  A
C432        C624   1.475   1_554  S
O433        C438   1.267       .  A
O434        C436   1.269       .  A
C435        C644   1.476       .  S
C435        O437   1.271       .  A
C436        C667   1.486       .  S
C438        C677   1.480       .  S
C439        N440   1.360       .  A
C439        N444   1.357       .  A
C439        C614   1.473       .  S
N440        C441   1.356   1_455  A
C441        N442   1.356       .  A
C441        C647   1.465       .  S
N442        C443   1.356       .  A
C443        N444   1.354   1_655  A
C443        C637   1.466       .  S
C445        N446   1.360       .  A
C445        N450   1.360       .  A
C445        C607   1.487       .  S
N446        C447   1.360       .  A
C447        N448   1.357       .  A
C447        C597   1.484       .  S
N448        C449   1.355       .  A
C449        N450   1.353       .  A
C449        C584   1.475       .  S
Fe451       O467   2.036       .  S
Fe451       O457   2.054       .  S
Fe451       O464   2.061       .  S
Fe451       O456   2.047       .  S
Fe452       O455   2.051       .  S
Fe452       O459   2.068       .  S
Fe452       O463   2.063       .  S
Fe452       O468   2.064       .  S
Fe452       O462   1.973       .  S
Fe453       O471   2.074       .  S
Fe453       O458   2.067       .  S
Fe453       O462   1.978       .  S
O454        C461   1.272       .  A
O455        C469   1.266       .  A
O456        C461   1.265       .  A
O457        C460   1.266       .  A
O458        C470   1.269       .  A
C460        C564   1.472       .  S
C460        O465   1.270       .  A
C461        C587   1.486       .  S
O463        C466   1.268       .  A
C466        C747   1.482       .  S
O467        C472   1.265       .  A
O468        C470   1.271       .  A
C469        C577   1.471       .  S
C469        O471   1.270       .  A
C470        C594   1.492       .  S
C472        C554   1.484       .  S
C473        N474   1.356       .  A
C473        N478   1.361       .  A
C473        C687   1.476   1_455  S
N474        C475   1.354       .  A
C475        N476   1.356       .  A
C475        C574   1.470       .  S
N476        C477   1.358       .  A
C477        N478   1.358       .  A
C477        C567   1.468       .  S
C479        N480   1.356       .  A
C479        C557   1.486       .  S
N480        C481   1.353       .  A
C481        N482   1.356   1_556  A
C481        C537   1.469       .  S
C483        N484   1.356       .  A
C483        C544   1.472       .  S
Fe485       O501   2.051       .  S
Fe485       O491   2.053       .  S
Fe485       O498   2.059       .  S
Fe485       O490   2.052       .  S
Fe485       O496   1.978       .  S
Fe486       O489   2.053       .  S
Fe486       O493   2.063       .  S
Fe486       O497   2.053       .  S
Fe486       O502   2.058       .  S
Fe486       O496   1.974       .  S
Fe487       O505   2.065       .  S
Fe487       O492   2.066       .  S
Fe487       O499   2.054       .  S
Fe487       O488   2.071       .  S
Fe487       O496   1.976       .  S
O488        C495   1.270       .  A
O489        C503   1.266       .  A
O490        C495   1.268       .  A
O491        C494   1.264       .  A
O492        C504   1.268       .  A
O493        C506   1.267       .  A
C494        C534   1.480       .  S
C494        O499   1.268       .  A
C495        C514   1.482       .  S
O497        C500   1.265       .  A
O498        C500   1.267       .  A
C500        C604   1.478       .  S
O501        C506   1.267       .  A
O502        C504   1.267       .  A
C503        C547   1.483       .  S
C503        O505   1.269       .  A
C504        C527   1.465       .  S
C506        C617   1.476       .  S
C507        N508   1.357   1_554  A
C507        C627   1.477   1_554  S
N508        C509   1.353       .  A
C509        N510   1.354   1_556  A
C509        C517   1.463       .  S
C511        N512   1.358       .  A
C511        C524   1.474       .  S
C513        C514   1.407       .  A
C513        C518   1.396       .  A
C513        H520   1.084       .  S
C514        C515   1.418       .  A
C515        C516   1.399       .  A
C515       Br522   1.922       .  S
C516        C517   1.398       .  A
C516        H521   1.084       .  S
C517        C518   1.403       .  A
C518       Br519   1.920       .  S
C523        C524   1.403       .  A
C523        C528   1.395       .  A
C523        H530   1.084       .  S
C524        C525   1.414       .  A
C525        C526   1.400       .  A
C525       Br532   1.919       .  S
C526        C527   1.400       .  A
C526        H531   1.084       .  S
C527        C528   1.406       .  A
C528       Br529   1.918       .  S
C533        C534   1.405       .  A
C533        C538   1.392       .  A
C533        H540   1.083       .  S
C534        C535   1.416       .  A
C535        C536   1.398       .  A
C535       Br542   1.922       .  S
C536        C537   1.401       .  A
C536        H541   1.084       .  S
C537        C538   1.410       .  A
C538       Br539   1.923       .  S
C543        C544   1.401       .  A
C543        C548   1.397       .  A
C543        H550   1.084       .  S
C544        C545   1.410       .  A
C545        C546   1.397       .  A
C545       Br552   1.921       .  S
C546        C547   1.407       .  A
C546        H551   1.083       .  S
C547        C548   1.414       .  A
C548       Br549   1.922       .  S
C553        C554   1.408       .  A
C553        C558   1.393       .  A
C553        H560   1.083       .  S
C555        C556   1.396       .  A
C555       Br562   1.924       .  S
C556        C557   1.409       .  A
C556        H561   1.082       .  S
C558       Br559   1.923       .  S
C563        C564   1.402       .  A
C563        C568   1.400       .  A
C563        H570   1.084       .  S
C564        C565   1.411       .  A
C565        C566   1.399       .  A
C565       Br572   1.919       .  S
C566        C567   1.401       .  A
C566        H571   1.084       .  S
C567        C568   1.407       .  A
C568       Br569   1.918       .  S
C573        C574   1.402       .  A
C573        C578   1.399       .  A
C573        H580   1.084       .  S
C574        C575   1.409       .  A
C575        C576   1.398       .  A
C575       Br582   1.920       .  S
C576        C577   1.402       .  A
C576        H581   1.084       .  S
C577        C578   1.410       .  A
C578       Br579   1.921       .  S
C583        C584   1.401   1_545  A
C583        C588   1.398       .  A
C583        H590   1.084       .  S
C584        C585   1.411       .  A
C585        C586   1.396       .  A
C585       Br592   1.920       .  S
C586        C587   1.407   1_565  A
C586        H591   1.083       .  S
C587        C588   1.418       .  A
C588       Br589   1.924       .  S
C593        C594   1.408       .  A
C593        C598   1.395       .  A
C593        H600   1.083       .  S
C594        C595   1.418   1_545  A
C595        C596   1.402       .  A
C595       Br602   1.922       .  S
C596        C597   1.405       .  A
C596        H601   1.083       .  S
C597        C598   1.411   1_565  A
C598       Br599   1.922       .  S
C603        C604   1.406       .  A
C603        C608   1.401       .  A
C603        H610   1.084       .  S
C604        C605   1.411       .  A
C605        C606   1.392       .  A
C605       Br612   1.924       .  S
C606        C607   1.406       .  A
C606        H611   1.081       .  S
C607        C608   1.415       .  A
C608       Br609   1.921       .  S
C613        C614   1.405       .  A
C613        C618   1.397       .  A
C613        H620   1.083       .  S
C614        C615   1.409       .  A
C615        C616   1.395       .  A
C615       Br622   1.921       .  S
C616        C617   1.405       .  A
C616        H621   1.083       .  S
C617        C618   1.412       .  A
C618       Br619   1.921       .  S
C623        C624   1.403       .  A
C623        C628   1.395       .  A
C623        H630   1.084       .  S
C625        C626   1.397       .  A
C625       Br632   1.922       .  S
C626        H631   1.082       .  S
C627        C628   1.413       .  A
C628       Br629   1.922       .  S
C633        C634   1.402       .  A
C633        C638   1.398       .  A
C633        H640   1.084       .  S
C634        C635   1.409       .  A
C635        C636   1.395       .  A
C635       Br642   1.921       .  S
C636        C637   1.400       .  A
C636        H641   1.084       .  S
C637        C638   1.409       .  A
C638       Br639   1.920       .  S
C643        C644   1.407       .  A
C643        C648   1.395       .  A
C643        H650   1.084       .  S
C644        C645   1.410       .  A
C645        C646   1.402       .  A
C645       Br652   1.918       .  S
C646        C647   1.402       .  A
C646        H651   1.083       .  S
C647        C648   1.403       .  A
C648       Br649   1.920       .  S
C653        C654   1.401       .  A
C653        C658   1.390       .  A
C653        H660   1.082       .  S
C654        C655   1.408       .  A
C655        C656   1.404       .  A
C655       Br662   1.920       .  S
C656        C657   1.412       .  A
C656        H661   1.077       .  S
C657        C658   1.421       .  A
C658       Br659   1.926       .  S
C663        C664   1.401       .  A
C663        C668   1.400       .  A
C663        H670   1.084       .  S
C664        C665   1.405       .  A
C665        C666   1.394       .  A
C665       Br672   1.920       .  S
C666        C667   1.407       .  A
C666        H671   1.083       .  S
C667        C668   1.419       .  A
C668       Br669   1.923       .  S
C673        C678   1.395       .  A
C673        H680   1.083       .  S
C674        C675   1.412       .  A
C675        C676   1.395       .  A
C675       Br682   1.922       .  S
C676        C677   1.406       .  A
C676        H681   1.084       .  S
C678       Br679   1.923       .  S
C683        C684   1.402       .  A
C683        C688   1.395       .  A
C683        H690   1.084       .  S
C684        C685   1.409       .  A
C685        C686   1.398       .  A
C685       Br692   1.916       .  S
C686        C687   1.404       .  A
C686        H691   1.084       .  S
C687        C688   1.413       .  A
C688       Br689   1.923       .  S
C693        C694   1.409       .  A
C693        C698   1.396       .  A
C693        H700   1.083       .  S
C694        C695   1.417       .  A
C695        C696   1.397       .  A
C695       Br702   1.921   1_545  S
C696        C697   1.403       .  A
C696        H701   1.084       .  S
C697        C698   1.407       .  A
C698       Br699   1.922       .  S
C703        C704   1.410       .  A
C703        C708   1.393       .  A
C703        H710   1.081       .  S
C704        C705   1.418       .  A
C705        C706   1.403       .  A
C705       Br712   1.922       .  S
C706        C707   1.406       .  A
C706        H711   1.084       .  S
C707        C708   1.404       .  A
C708       Br709   1.921       .  S
C713        C714   1.407       .  A
C713        C718   1.404       .  A
C713        H720   1.084       .  S
C714        C715   1.412       .  A
C715        C716   1.393       .  A
C715       Br722   1.923       .  S
C716        C717   1.398       .  A
C716        H721   1.084       .  S
C717        C718   1.406       .  A
C718       Br719   1.917       .  S
C723        C724   1.402       .  A
C723        C728   1.397       .  A
C723        H730   1.084       .  S
C724        C725   1.410       .  A
C725        C726   1.404       .  A
C725       Br732   1.918       .  S
C726        C727   1.404       .  A
C726        H731   1.084       .  S
C727        C728   1.406       .  A
C728       Br729   1.918       .  S
C733        C734   1.405       .  A
C733        C738   1.391       .  A
C733        H740   1.083       .  S
C734        C735   1.417       .  A
C735        C736   1.403       .  A
C735       Br742   1.919       .  S
C736        C737   1.401       .  A
C736        H741   1.083       .  S
C737        C738   1.410       .  A
C738       Br739   1.925       .  S
C743        C744   1.403   1_554  A
C743        C748   1.396       .  A
C743        H750   1.084       .  S
C745       Br752   1.922       .  S
C746        C747   1.405       .  A
C747        C748   1.414   1_556  A
C748       Br749   1.923       .  S
