geometry optimzed in LAMMPS
_audit_creation_date              2020-11-30 
_audit_creation_method            'lammps2cif' 
_symmetry_space_group_name_H-M    'P1' 
_symmetry_Int_Tables_number       1 
_symmetry_cell_setting            triclinic 
loop_ 
_symmetry_equiv_pos_as_xyz 
  x,y,z 
_cell_length_a                    34.02415106 
_cell_length_b                    33.66724920459662 
_cell_length_c                    29.778946413267708 
_cell_angle_alpha                 89.1665628401857 
_cell_angle_beta                  89.83213623432437 
_cell_angle_gamma                 89.91380828066796 
loop_ 
_atom_site_label 
_atom_site_type_symbol 
_atom_site_fract_x 
_atom_site_fract_y 
_atom_site_fract_z 
_atom_site_charge 
C1          C  0.66955593  0.66794772  0.23582992     0.03000
C2          C  0.68190503  0.68281962  0.19381513    -0.13200
C3          C  0.71159439  0.71161199  0.19098434     0.00500
C4          C  0.72845033  0.72622419  0.23033117    -0.11700
C5          C  0.71601214  0.71179262  0.27237548     0.03000
C6          C  0.68698820  0.68236067  0.27499644    -0.11100
H7          H  0.66853023  0.67193921  0.16338638     0.08600
H8          H  0.75102756  0.74886121  0.22823996     0.06100
H9          H  0.67758387  0.67107039  0.30756363     0.05900
C10         C  0.81386018  0.81757013  0.98340351     0.03000
C11         C  0.79436386  0.80413453  0.02238420    -0.13200
C12         C  0.76767527  0.77261698  0.02070341     0.00500
C13         C  0.75763224  0.75653500  0.97920824    -0.11700
C14         C  0.77530039  0.77099436  0.43965198     0.03000
C15         C  0.80441260  0.80037504  0.44197042    -0.11100
H16         H  0.80090768  0.81735422  0.05447911     0.08600
H17         H  0.73597317  0.73302315  0.97764421     0.06100
H18         H  0.81904928  0.81034470  0.41148216     0.05900
C19         C  0.66449141  0.31565676  0.27350648     0.03000
C20         C  0.68114125  0.30163210  0.23347482    -0.13200
C21         C  0.71015215  0.27197428  0.23454864     0.00500
C22         C  0.72340983  0.25691847  0.27595773    -0.11700
C23         C  0.70755846  0.27108131  0.31621383     0.03000
C24         C  0.67775845  0.30003046  0.31486589    -0.11100
H25         H  0.67136494  0.31364359  0.20143289     0.08600
H26         H  0.74627666  0.23447232  0.27686377     0.06100
H27         H  0.66529605  0.31074387  0.34596423     0.05900
C28         C  0.81742590  0.17146890  0.52576509     0.03000
C29         C  0.80141574  0.18557233  0.48516689    -0.13200
C30         C  0.77124012  0.21401297  0.48523654     0.00500
C31         C  0.75711567  0.22842740  0.52625217    -0.11700
C32         C  0.77305118  0.21452039  0.06701636     0.03000
C33         C  0.80323930  0.18609475  0.06662805    -0.11100
H34         H  0.81222648  0.17420491  0.45357276     0.08600
H35         H  0.73370185  0.25028607  0.52646543     0.06100
H36         H  0.81524471  0.17494044  0.09804801     0.05900
C37         C  0.32165009  0.67785685  0.22929965     0.03000
C38         C  0.30728935  0.69573410  0.26839770    -0.13200
C39         C  0.27787924  0.72485847  0.26585857     0.00500
C40         C  0.26394309  0.73762681  0.22380720    -0.11700
C41         C  0.27870493  0.72075030  0.18439163     0.03000
C42         C  0.30706241  0.69045699  0.18727416    -0.11100
H43         H  0.31822198  0.68618116  0.30096687     0.08600
H44         H  0.24132089  0.76027850  0.22178297     0.06100
H45         H  0.31771163  0.67671548  0.15687685     0.05900
C46         C  0.17027672  0.82246030  0.97677962     0.03000
C47         C  0.18331778  0.80821225  0.43525714    -0.13200
C48         C  0.21339976  0.77977366  0.43335628     0.00500
C49         C  0.22977014  0.76457938  0.97327528    -0.11700
C50         C  0.21668925  0.77831818  0.01497372     0.03000
C51         C  0.18742401  0.80766531  0.01653401    -0.11100
H52         H  0.17028198  0.81944547  0.40441771     0.08600
H53         H  0.25286908  0.74242528  0.97187723     0.06100
H54         H  0.17761488  0.81861543  0.04873908     0.05900
O55         O  0.03050401  0.95660259  0.45539369    -0.73100
O56         O  0.94709883  0.04058000  0.47383495    -0.74100
O57         O  0.03106954  0.03999706  0.46668818    -0.62700
O58         O  0.94693942  0.95670270  0.46147825    -0.71100
O59         O  0.94881207  0.94950721  0.03523354    -0.70700
O60         O  0.03544989  0.03092276  0.04032071    -0.61900
O61         O  0.95208828  0.03272562  0.04777154    -0.74400
O62         O  0.03291512  0.94710228  0.02919968    -0.73200
Cu63       Cu  0.98869375  0.99881830  0.46179124     1.04600
Cu64       Cu  0.99247685  0.98969318  0.04066658     1.04300
C65         C  0.04496945  0.93874323  0.98974507     0.93100
C66         C  0.93663299  0.04988419  0.01366833     0.92200
C67         C  0.04696708  0.04832804  0.00414862     0.84400
C68         C  0.93401035  0.94012707  0.99742959     0.90700
O69         O  0.53284807  0.44921465  0.22310524    -0.73100
O70         O  0.45145251  0.53552437  0.21022223    -0.74100
O71         O  0.53475352  0.53323575  0.21322784    -0.62700
O72         O  0.44943303  0.45135335  0.21988401    -0.71100
O73         O  0.44738812  0.45674735  0.29405131    -0.70700
O74         O  0.53274395  0.53922874  0.28733257    -0.61900
O75         O  0.44918368  0.54102647  0.28437361    -0.74400
O76         O  0.53108087  0.45504290  0.29721820    -0.73200
Cu77       Cu  0.49217733  0.49212720  0.21406340     1.04600
Cu78       Cu  0.49000074  0.49822201  0.29335801     1.04300
C79         C  0.54486492  0.43856618  0.26210321     0.93100
C80         C  0.43756180  0.55193550  0.24530932     0.92200
C81         C  0.54720825  0.54916229  0.24913997     0.84400
C82         C  0.43505643  0.44097877  0.25793948     0.90700
C83         C  0.17220097  0.16520485  0.01204377     0.03000
C84         C  0.18596458  0.18009813  0.05299960    -0.13200
C85         C  0.21655219  0.20809626  0.05356485     0.00500
C86         C  0.23244850  0.22228416  0.01289911    -0.11700
C87         C  0.21835528  0.20823763  0.47191516     0.03000
C88         C  0.18900964  0.17909611  0.47172955    -0.11100
H89         H  0.17299412  0.16988169  0.08436916     0.08600
H90         H  0.25538634  0.24458918  0.01315344     0.06700
H91         H  0.17859595  0.16787736  0.43997239     0.05900
C92         C  0.31708638  0.31698762  0.26044885     0.03000
C93         C  0.30490659  0.29974359  0.22006731    -0.13200
C94         C  0.27603230  0.27000791  0.22031623     0.00500
C95         C  0.26048869  0.25625276  0.26134553    -0.11700
C96         C  0.27321751  0.27245986  0.30192520     0.03000
C97         C  0.30070333  0.30342176  0.30118048    -0.11100
H98         H  0.31741066  0.30986941  0.18841286     0.08600
H99         H  0.23865136  0.23283944  0.26170996     0.06100
H100        H  0.30992744  0.31645634  0.33250281     0.05900
C101        C  0.27098915  0.21783945  0.35979177    -0.02000
C102        C  0.25897108  0.25608810  0.34543285     0.07700
C103        C  0.23429986  0.27892890  0.37314634    -0.02100
C104        C  0.22139104  0.26340953  0.41478844    -0.02100
C105        C  0.23313881  0.22503094  0.42890364     0.07800
C106        C  0.25796026  0.20230010  0.40135025    -0.02300
Br107      Br  0.27480409  0.15017497  0.42114986    -0.00900
Br108      Br  0.30658719  0.18727234  0.32329185    -0.00900
Br109      Br  0.18654887  0.29422102  0.45195416    -0.00900
Br110      Br  0.21731746  0.33107361  0.35352185    -0.00900
C111        C  0.22453671  0.26725747  0.16070879    -0.02000
C112        C  0.26105513  0.25407526  0.17754513     0.07700
C113        C  0.28293870  0.22566630  0.15372340    -0.02100
C114        C  0.26810401  0.21016224  0.11347089    -0.02100
C115        C  0.23155069  0.22335832  0.09665973     0.07800
C116        C  0.20985679  0.25200162  0.12031778    -0.02300
Br117      Br  0.16051051  0.27112812  0.09660679    -0.00900
Br118      Br  0.19519032  0.30715393  0.19249100    -0.00900
Br119      Br  0.29738309  0.17021261  0.08170616    -0.00900
Br120      Br  0.33305416  0.20784056  0.17654973    -0.00900
C121        C  0.38238089  0.34419721  0.28472793    -0.02000
C122        C  0.34707290  0.34910402  0.26032058     0.07700
C123        C  0.34031575  0.38496549  0.23630375    -0.02100
C124        C  0.36934736  0.41474398  0.23495415    -0.02100
C125        C  0.40423839  0.41006135  0.25999986     0.07800
C126        C  0.41017774  0.37511308  0.28581678    -0.02300
Br127      Br  0.45710961  0.36872086  0.32159716    -0.00900
Br128      Br  0.39416344  0.29422890  0.31457776    -0.00900
Br129      Br  0.36056126  0.46256825  0.19975878    -0.00900
Br130      Br  0.29043844  0.39451702  0.20716426    -0.00900
C131        C  0.11395498  0.06956710  0.02984139    -0.02000
C132        C  0.07913376  0.07811510  0.00570798     0.07700
C133        C  0.07538105  0.11518100  0.48314283    -0.02100
C134        C  0.10483779  0.14425062  0.48732052    -0.02100
C135        C  0.13983693  0.13551503  0.01090415     0.07800
C136        C  0.14445413  0.09781041  0.03161776    -0.02300
Br137      Br  0.19350749  0.08373729  0.06031301    -0.00900
Br138      Br  0.12157677  0.01793075  0.05774766    -0.00900
Br139      Br  0.09609708  0.19690696  0.46243909    -0.00900
Br140      Br  0.03020439  0.12684034  0.44598026    -0.00900
C141        C  0.07140904  0.86979008  0.00189229    -0.02000
C142        C  0.07638864  0.90854752  0.98418069     0.07700
C143        C  0.11217038  0.91876155  0.46279486    -0.02100
C144        C  0.14300802  0.89077343  0.46049764    -0.02100
C145        C  0.13797999  0.85211834  0.97879597     0.07800
C146        C  0.10188269  0.84165149  0.99903312    -0.02300
Br147      Br  0.09347598  0.78815528  0.02154020    -0.00900
Br148      Br  0.02209321  0.85419866  0.02813118    -0.00900
Br149      Br  0.19278422  0.90608795  0.43426585    -0.00900
Br150      Br  0.11970810  0.97162686  0.43830141    -0.00900
C151        C  0.34215590  0.60982579  0.25643398    -0.02000
C152        C  0.35122748  0.64533551  0.23270730     0.07700
C153        C  0.38877409  0.64988107  0.21294799    -0.02100
C154        C  0.41658716  0.61887955  0.21597238    -0.02100
C155        C  0.40782693  0.58389915  0.24070104     0.07800
C156        C  0.37066098  0.57968678  0.26131974    -0.02300
Br157      Br  0.35816438  0.53200335  0.29523904    -0.00900
Br158      Br  0.29005581  0.60141900  0.28073338    -0.00900
Br159      Br  0.46735266  0.62516465  0.18760727    -0.00900
Br160      Br  0.40316123  0.69949660  0.18400220    -0.00900
C161        C  0.28112086  0.76753254  0.11828635    -0.02000
C162        C  0.26382635  0.73446713  0.14012244     0.07700
C163        C  0.23172709  0.71511222  0.12023287    -0.02100
C164        C  0.21687963  0.72886182  0.07869798    -0.02100
C165        C  0.23375184  0.76235434  0.05724043     0.07800
C166        C  0.26605713  0.78149062  0.07695255    -0.02300
Br167      Br  0.28933647  0.82704051  0.04726404    -0.00900
Br168      Br  0.32516776  0.79390169  0.14543173    -0.00900
Br169      Br  0.17324114  0.70208711  0.05122357    -0.00900
Br170      Br  0.20760768  0.67038090  0.15065587    -0.00900
C171        C  0.27840631  0.77174597  0.33032495    -0.02000
C172        C  0.26030539  0.74031854  0.30757500     0.07700
C173        C  0.22594311  0.72269393  0.32533593    -0.02100
C174        C  0.21010875  0.73602719  0.36617508    -0.02100
C175        C  0.22875543  0.76683926  0.38944109     0.07800
C176        C  0.26250035  0.78515338  0.37108389    -0.02300
Br177      Br  0.28648334  0.82899418  0.40169495    -0.00900
Br178      Br  0.32511043  0.79612550  0.30565321    -0.00900
Br179      Br  0.16305772  0.71204142  0.39051756    -0.00900
Br180      Br  0.20118679  0.67964717  0.29407894    -0.00900
C181        C  0.88777622  0.14972075  0.53217626    -0.02000
C182        C  0.84794278  0.14010817  0.52540649     0.07700
C183        C  0.83708335  0.10036685  0.01870787    -0.02100
C184        C  0.86607690  0.07061065  0.01637773    -0.02100
C185        C  0.90606828  0.08049599  0.52027140     0.07800
C186        C  0.91671365  0.11977579  0.53045697    -0.02300
Br187      Br  0.97061158  0.13212634  0.54398077    -0.00900
Br188      Br  0.90267906  0.20404216  0.54268337    -0.00900
Br189      Br  0.85080541  0.01588626  0.01110950    -0.00900
Br190      Br  0.78223438  0.08662642  0.01361871    -0.00900
C191        C  0.59697270  0.33915975  0.25108008    -0.02000
C192        C  0.63339319  0.34686385  0.27187554     0.07700
C193        C  0.64028796  0.38468452  0.29022766    -0.02100
C194        C  0.61090136  0.41426492  0.28832611    -0.02100
C195        C  0.57495764  0.40683899  0.26643928     0.07800
C196        C  0.56816030  0.36918520  0.24777178    -0.02300
Br197      Br  0.51869872  0.35810854  0.21886843    -0.00900
Br198      Br  0.58581333  0.28697787  0.22827915    -0.00900
Br199      Br  0.62079210  0.46562846  0.31402264    -0.00900
Br200      Br  0.69093872  0.39704614  0.31547041    -0.00900
C201        C  0.77523575  0.26126452  0.13165142    -0.02000
C202        C  0.75736515  0.22891878  0.11025232     0.07700
C203        C  0.72459088  0.21010276  0.13023025    -0.02100
C204        C  0.70924297  0.22409211  0.17104086    -0.02100
C205        C  0.72677067  0.25679607  0.19212121     0.07800
C206        C  0.76000491  0.27512851  0.17259372    -0.02300
Br207      Br  0.78460903  0.31912529  0.20224208    -0.00900
Br208      Br  0.82053191  0.28649279  0.10466684    -0.00900
Br209      Br  0.66427724  0.19847342  0.19831592    -0.00900
Br210      Br  0.70111932  0.16486477  0.10173480    -0.00900
C211        C  0.76931566  0.26375285  0.42200919    -0.02000
C212        C  0.75453265  0.22873078  0.44221150     0.07700
C213        C  0.72438116  0.20741922  0.42091986    -0.02100
C214        C  0.70882957  0.22131656  0.37975383    -0.02100
C215        C  0.72335646  0.25658345  0.35979630     0.07800
C216        C  0.75382184  0.27760436  0.38085527    -0.02300
Br217      Br  0.77501854  0.32483170  0.35254741    -0.00900
Br218      Br  0.81142141  0.29220017  0.45045122    -0.00900
Br219      Br  0.66788832  0.19199422  0.35032258    -0.00900
Br220      Br  0.70459036  0.15913296  0.44824256    -0.00900
C221        C  0.84237049  0.88378949  0.45946803    -0.02000
C222        C  0.84440563  0.84909293  0.98655417     0.07700
C223        C  0.87509504  0.84513769  0.01808996    -0.02100
C224        C  0.90116631  0.87678659  0.02521247    -0.02100
C225        C  0.90208563  0.90966506  0.99485670     0.07800
C226        C  0.87258505  0.91238525  0.46115259    -0.02300
Br227      Br  0.87139384  0.95563631  0.41763067    -0.00900
Br228      Br  0.79673115  0.89403368  0.42241946    -0.00900
Br229      Br  0.93358906  0.87421894  0.07831066    -0.00900
Br230      Br  0.88384226  0.79514473  0.04951233    -0.00900
C231        C  0.64445965  0.59918870  0.22189311    -0.02000
C232        C  0.63814671  0.63753613  0.23901642     0.07700
C233        C  0.60196770  0.64667576  0.25978992    -0.02100
C234        C  0.57264151  0.61743207  0.26429990    -0.02100
C235        C  0.57862968  0.57935935  0.24627301     0.07800
C236        C  0.61452830  0.57042856  0.22474551    -0.02300
Br237      Br  0.62355514  0.51820104  0.20069278    -0.00900
Br238      Br  0.69478844  0.58534257  0.19631458    -0.00900
Br239      Br  0.52371275  0.63027209  0.29383173    -0.00900
Br240      Br  0.59167247  0.69989812  0.28015767    -0.00900
C241        C  0.76668661  0.71136370  0.33301715    -0.02000
C242        C  0.73252909  0.72814397  0.31396690     0.07700
C243        C  0.71331489  0.75980054  0.33533734    -0.02100
C244        C  0.72783639  0.77419535  0.37613021    -0.02100
C245        C  0.76154544  0.75689847  0.39569598     0.07800
C246        C  0.78119092  0.72572545  0.37392681    -0.02300
Br247      Br  0.82740429  0.70233343  0.40074466    -0.00900
Br248      Br  0.79303037  0.66831158  0.30323411    -0.00900
Br249      Br  0.70153373  0.81758118  0.40547599    -0.00900
Br250      Br  0.66692805  0.78319352  0.30875566    -0.00900
C251        C  0.76833331  0.72098546  0.08172354    -0.02000
C252        C  0.75159950  0.75575881  0.06294343     0.07700
C253        C  0.72146950  0.77578071  0.08597870    -0.02100
C254        C  0.70808717  0.76108909  0.12776168    -0.02100
C255        C  0.72505415  0.72656098  0.14671476     0.07800
C256        C  0.75524946  0.70656736  0.12373809    -0.02300
Br257      Br  0.77949739  0.66021664  0.15068927    -0.00900
Br258      Br  0.81008568  0.69389883  0.05049975    -0.00900
Br259      Br  0.66690465  0.78843380  0.15952072    -0.00900
Br260      Br  0.69876752  0.82338984  0.06016960    -0.00900
C261        C  0.66963255  0.66795598  0.73584546     0.03000
C262        C  0.68197567  0.68282683  0.69382838    -0.13200
C263        C  0.71165841  0.71162551  0.69099133     0.00500
C264        C  0.72851392  0.72624543  0.73033516    -0.11700
C265        C  0.71608197  0.71181363  0.77238230     0.03000
C266        C  0.68706554  0.68237444  0.77500851    -0.11100
H267        H  0.66859961  0.67194224  0.66340234     0.08600
H268        H  0.75108491  0.74888869  0.72823953     0.06100
H269        H  0.67766474  0.67108535  0.80757769     0.05900
C270        C  0.81386773  0.81754333  0.48335240     0.03000
C271        C  0.79437374  0.80412033  0.52234033    -0.13200
C272        C  0.76768160  0.77260527  0.52067467     0.00500
C273        C  0.75762620  0.75651811  0.47918644    -0.11700
C274        C  0.77531301  0.77102055  0.93968198     0.03000
C275        C  0.80441655  0.80040840  0.94201484    -0.11100
H276        H  0.80092550  0.81734504  0.55443067     0.08600
H277        H  0.73596309  0.73300905  0.47763414     0.06100
H278        H  0.81905550  0.81038913  0.91153229     0.05900
C279        C  0.66454223  0.31567868  0.77351975     0.03000
C280        C  0.68118203  0.30165076  0.73348412    -0.13200
C281        C  0.71019424  0.27199373  0.73455273     0.00500
C282        C  0.72346092  0.25694198  0.77596031    -0.11700
C283        C  0.70761525  0.27110707  0.81621838     0.03000
C284        C  0.67781548  0.30005467  0.81487627    -0.11100
H285        H  0.67139610  0.31365797  0.70144407     0.08600
H286        H  0.74632661  0.23449475  0.77686354     0.06100
H287        H  0.66535962  0.31077053  0.84597666     0.05900
C288        C  0.81749233  0.17153941  0.02578004     0.03000
C289        C  0.80148963  0.18564358  0.98517881    -0.13200
C290        C  0.77130381  0.21407221  0.98524379     0.00500
C291        C  0.75716034  0.22847384  0.02625635    -0.11700
C292        C  0.77301291  0.21447449  0.56700907     0.03000
C293        C  0.80318904  0.18603596  0.56661525    -0.11100
H294        H  0.81230968  0.17428120  0.95358642     0.08600
H295        H  0.73373601  0.25032114  0.02646500     0.06100
H296        H  0.81520203  0.17488522  0.59803311     0.05900
C297        C  0.32168670  0.67786370  0.72930016     0.03000
C298        C  0.30731354  0.69572774  0.76840117    -0.13200
C299        C  0.27789790  0.72484720  0.76586382     0.00500
C300        C  0.26396932  0.73762496  0.72381327    -0.11700
C301        C  0.27874240  0.72076256  0.68439582     0.03000
C302        C  0.30710464  0.69047318  0.68727505    -0.11100
H303        H  0.31824031  0.68616788  0.80097037     0.08600
H304        H  0.24134326  0.76027269  0.72179080     0.06100
H305        H  0.31776219  0.67674222  0.65687516     0.05900
C306        C  0.17032889  0.82250820  0.47679504     0.03000
C307        C  0.18326962  0.80816417  0.93524279    -0.13200
C308        C  0.21335173  0.77972499  0.93334546     0.00500
C309        C  0.22982420  0.76463061  0.47328436    -0.11700
C310        C  0.21674767  0.77837053  0.51498426     0.03000
C311        C  0.18748094  0.80771592  0.51654766    -0.11100
H312        H  0.17023960  0.81940032  0.90440162     0.08600
H313        H  0.25292123  0.74247468  0.47188389     0.06100
H314        H  0.17767206  0.81866408  0.54875357     0.05900
O315        O  0.03047861  0.95659006  0.95538931    -0.73100
O316        O  0.94711024  0.04060377  0.97384226    -0.74100
O317        O  0.03107706  0.03998704  0.96665777    -0.62700
O318        O  0.94691609  0.95672359  0.96151002    -0.71100
O319        O  0.94881196  0.94947500  0.53520102    -0.70700
O320        O  0.03542415  0.03091459  0.54035030    -0.61900
O321        O  0.95205832  0.03269077  0.54776453    -0.74400
O322        O  0.03291735  0.94709710  0.52920260    -0.73200
Cu323      Cu  0.98868551  0.99882318  0.96179235     1.04600
Cu324      Cu  0.99246266  0.98967265  0.54066473     1.04300
C325        C  0.04498823  0.93875195  0.48975055     0.93100
C326        C  0.93660641  0.04984934  0.51365927     0.92200
C327        C  0.04694694  0.04833229  0.50418806     0.84400
C328        C  0.93402642  0.94009583  0.49738847     0.90700
O329        O  0.53291377  0.44923899  0.72313452    -0.73100
O330        O  0.45151434  0.53554362  0.71022748    -0.74100
O331        O  0.53481650  0.53325778  0.71324174    -0.62700
O332        O  0.44950070  0.45137221  0.71990398    -0.71100
O333        O  0.44744770  0.45677520  0.79406971    -0.70700
O334        O  0.53280191  0.53925884  0.78734534    -0.61900
O335        O  0.44923978  0.54105388  0.78437774    -0.74400
O336        O  0.53114210  0.45507570  0.79724666    -0.73200
Cu337      Cu  0.49224202  0.49214822  0.71408070     1.04600
Cu338      Cu  0.49005920  0.49825226  0.79337394     1.04300
C339        C  0.54492837  0.43859540  0.76213504     0.93100
C340        C  0.43761921  0.55195733  0.74531086     0.92200
C341        C  0.54726987  0.54918701  0.74915277     0.84400
C342        C  0.43512092  0.44100059  0.75795890     0.90700
C343        C  0.17218350  0.16520744  0.51209880     0.03000
C344        C  0.18597507  0.18009263  0.55304673    -0.13200
C345        C  0.21656975  0.20808437  0.55359284     0.00500
C346        C  0.23244513  0.22227343  0.51291695    -0.11700
C347        C  0.21838546  0.20824082  0.97188845     0.03000
C348        C  0.18904684  0.17909231  0.97168512    -0.11100
H349        H  0.17301930  0.16987701  0.58442447     0.08600
H350        H  0.25538721  0.24457432  0.51315674     0.06700
H351        H  0.17865371  0.16786720  0.93992191     0.05900
C352        C  0.31716899  0.31698651  0.76044444     0.03000
C353        C  0.30499689  0.29973490  0.72006273    -0.13200
C354        C  0.27612041  0.27000052  0.72031091     0.00500
C355        C  0.26057324  0.25624919  0.76133958    -0.11700
C356        C  0.27329579  0.27246098  0.80191857     0.03000
C357        C  0.30077767  0.30342600  0.80117426    -0.11100
H358        H  0.31750439  0.30985712  0.68840886     0.08600
H359        H  0.23873454  0.23283677  0.76170378     0.06100
H360        H  0.30999225  0.31646732  0.83249642     0.05900
C361        C  0.27105226  0.21784161  0.85978487    -0.02000
C362        C  0.25904312  0.25609280  0.84542483     0.07700
C363        C  0.23437046  0.27893689  0.87313294    -0.02100
C364        C  0.22144919  0.26341729  0.91476969    -0.02100
C365        C  0.23318660  0.22503545  0.92888544     0.07800
C366        C  0.25801120  0.20230203  0.90133812    -0.02300
Br367      Br  0.27484169  0.15017229  0.92113736    -0.00900
Br368      Br  0.30665405  0.18727048  0.82329332    -0.00900
Br369      Br  0.18659987  0.29423188  0.95192384    -0.00900
Br370      Br  0.21740088  0.33108566  0.85350739    -0.00900
C371        C  0.22460610  0.26725310  0.66072529    -0.02000
C372        C  0.26113258  0.25407322  0.67754151     0.07700
C373        C  0.28300575  0.22566295  0.65370953    -0.02100
C374        C  0.26815299  0.21015622  0.61346646    -0.02100
C375        C  0.23158995  0.22334808  0.59667761     0.07800
C376        C  0.20990695  0.25199269  0.62034600    -0.02300
Br377      Br  0.16054773  0.27111436  0.59666540    -0.00900
Br378      Br  0.19527270  0.30715137  0.69252046    -0.00900
Br379      Br  0.29742023  0.17020835  0.58168511    -0.00900
Br380      Br  0.33312873  0.20783543  0.67651197    -0.00900
C381        C  0.38244342  0.34422173  0.78476440    -0.02000
C382        C  0.34715155  0.34910852  0.76032041     0.07700
C383        C  0.34040326  0.38495950  0.73627893    -0.02100
C384        C  0.36942961  0.41474369  0.73493826    -0.02100
C385        C  0.40430448  0.41008020  0.76001798     0.07800
C386        C  0.41023163  0.37514555  0.78586305    -0.02300
Br387      Br  0.45713527  0.36878144  0.82169838    -0.00900
Br388      Br  0.39421959  0.29426934  0.81465306    -0.00900
Br389      Br  0.36065551  0.46255197  0.69970998    -0.00900
Br390      Br  0.29054263  0.39449309  0.70709454    -0.00900
C391        C  0.11393054  0.06957212  0.52989654    -0.02000
C392        C  0.07910772  0.07812504  0.50576812     0.07700
C393        C  0.07541235  0.11516274  0.98306311    -0.02100
C394        C  0.10487006  0.14423240  0.98723202    -0.02100
C395        C  0.13981150  0.13552460  0.51097582     0.07800
C396        C  0.14443060  0.09781467  0.53167687    -0.02300
Br397      Br  0.19348801  0.08373191  0.56035700    -0.00900
Br398      Br  0.12155409  0.01792966  0.55778722    -0.00900
Br399      Br  0.09613880  0.19687803  0.96231584    -0.00900
Br400      Br  0.03023958  0.12681311  0.94589046    -0.00900
C401        C  0.07144432  0.86980509  0.50189063    -0.02000
C402        C  0.07641806  0.90856738  0.48419066     0.07700
C403        C  0.11213800  0.91872697  0.96276969    -0.02100
C404        C  0.14296861  0.89073066  0.96047214    -0.02100
C405        C  0.13802592  0.85215773  0.47881344     0.07800
C406        C  0.10192771  0.84167704  0.49903850    -0.02300
Br407      Br  0.09353445  0.78817621  0.52153827    -0.00900
Br408      Br  0.02212313  0.85419167  0.52809946    -0.00900
Br409      Br  0.19274568  0.90603226  0.93423313    -0.00900
Br410      Br  0.11968178  0.97158440  0.93825581    -0.00900
C411        C  0.34219982  0.60982877  0.75641919    -0.02000
C412        C  0.35126933  0.64534512  0.73270384     0.07700
C413        C  0.38881818  0.64989836  0.71295081    -0.02100
C414        C  0.41663638  0.61890079  0.71597566    -0.02100
C415        C  0.40787845  0.58391558  0.74069635     0.07800
C416        C  0.37070872  0.57969289  0.76130308    -0.02300
Br417      Br  0.35821251  0.53199783  0.79520141    -0.00900
Br418      Br  0.29009736  0.60140750  0.78070440    -0.00900
Br419      Br  0.46740501  0.62519635  0.68762136    -0.00900
Br420      Br  0.40320100  0.69951823  0.68401189    -0.00900
C421        C  0.28113265  0.76759749  0.61833690    -0.02000
C422        C  0.26387069  0.73449185  0.64012820     0.07700
C423        C  0.23180577  0.71511170  0.62019894    -0.02100
C424        C  0.21696559  0.72887055  0.57866441    -0.02100
C425        C  0.23380679  0.76240019  0.55724974     0.07800
C426        C  0.26607349  0.78156671  0.57700549    -0.02300
Br427      Br  0.28930837  0.82717029  0.54737804    -0.00900
Br428      Br  0.32512924  0.79400492  0.64553996    -0.00900
Br429      Br  0.17337357  0.70206256  0.55113614    -0.00900
Br430      Br  0.20771475  0.67033925  0.65057320    -0.00900
C431        C  0.27836333  0.77175660  0.83031119    -0.02000
C432        C  0.26030802  0.74029259  0.80757883     0.07700
C433        C  0.22596973  0.72262664  0.82534845    -0.02100
C434        C  0.21011883  0.73595048  0.86618357    -0.02100
C435        C  0.22872138  0.76679933  0.88943301     0.07800
C436        C  0.26243876  0.78515685  0.87106409    -0.02300
Br437      Br  0.28636141  0.82904274  0.90165391    -0.00900
Br438      Br  0.32503074  0.79619612  0.80562365    -0.00900
Br439      Br  0.16310285  0.71190573  0.89054052    -0.00900
Br440      Br  0.20126210  0.67954635  0.79410066    -0.00900
C441        C  0.88784064  0.14977846  0.03216299    -0.02000
C442        C  0.84800156  0.14017256  0.02542611     0.07700
C443        C  0.83703966  0.10030263  0.51865464    -0.02100
C444        C  0.86604294  0.07055547  0.51632677    -0.02100
C445        C  0.90610741  0.08054272  0.02028517     0.07800
C446        C  0.91676937  0.11982499  0.03043940    -0.02300
Br447      Br  0.97067832  0.13216756  0.04391615    -0.00900
Br448      Br  0.90276031  0.20410029  0.04263717    -0.00900
Br449      Br  0.85079036  0.01582936  0.51101357    -0.00900
Br450      Br  0.78219857  0.08654690  0.51352152    -0.00900
C451        C  0.59701508  0.33917837  0.75113437    -0.02000
C452        C  0.63344765  0.34688733  0.77189803     0.07700
C453        C  0.64035619  0.38471152  0.79023377    -0.02100
C454        C  0.61097194  0.41429487  0.78833881    -0.02100
C455        C  0.57501730  0.40686576  0.76647616     0.07800
C456        C  0.56820450  0.36920531  0.74783315    -0.02300
Br457      Br  0.51872417  0.35812266  0.71897450    -0.00900
Br458      Br  0.58583799  0.28698775  0.72837049    -0.00900
Br459      Br  0.62087763  0.46566320  0.81401412    -0.00900
Br460      Br  0.69102045  0.39706727  0.81544999    -0.00900
C461        C  0.77525067  0.26122250  0.63163958    -0.02000
C462        C  0.75734818  0.22889056  0.61024776     0.07700
C463        C  0.72456075  0.21010599  0.63023474    -0.02100
C464        C  0.70923285  0.22411182  0.67104749    -0.02100
C465        C  0.72679316  0.25680101  0.69212172     0.07800
C466        C  0.76003963  0.27510295  0.67258455    -0.02300
Br467      Br  0.78468562  0.31908236  0.70222066    -0.00900
Br468      Br  0.82056132  0.28641152  0.60463957    -0.00900
Br469      Br  0.66425074  0.19853368  0.69833612    -0.00900
Br470      Br  0.70104355  0.16488711  0.60174942    -0.00900
C471        C  0.76953544  0.26367560  0.92187656    -0.02000
C472        C  0.75459834  0.22878221  0.94221646     0.07700
C473        C  0.72428956  0.20758895  0.92106274    -0.02100
C474        C  0.70873766  0.22147682  0.87989315    -0.02100
C475        C  0.72342027  0.25661705  0.85979835     0.07800
C476        C  0.75403430  0.27752298  0.88072488    -0.02300
Br477      Br  0.77538818  0.32460639  0.85226047    -0.00900
Br478      Br  0.81184062  0.29196075  0.95014273    -0.00900
Br479      Br  0.66759256  0.19230701  0.85063552    -0.00900
Br480      Br  0.70430401  0.15946336  0.94856591    -0.00900
C481        C  0.84233940  0.88383070  0.95954267    -0.02000
C482        C  0.84442408  0.84905762  0.48649128     0.07700
C483        C  0.87510984  0.84510198  0.51803201    -0.02100
C484        C  0.90118391  0.87674845  0.52515504    -0.02100
C485        C  0.90210983  0.90962562  0.49479732     0.07800
C486        C  0.87255067  0.91242960  0.96122453    -0.02300
Br487      Br  0.87134216  0.95569088  0.91771651    -0.00900
Br488      Br  0.79668859  0.89407514  0.92251280    -0.00900
Br489      Br  0.93360224  0.87417799  0.57825688    -0.00900
Br490      Br  0.88384626  0.79511171  0.54946465    -0.00900
C491        C  0.64452966  0.59919921  0.72191062    -0.02000
C492        C  0.63822226  0.63754627  0.73903712     0.07700
C493        C  0.60204443  0.64669025  0.75981086    -0.02100
C494        C  0.57271282  0.61745187  0.76431554    -0.02100
C495        C  0.57869513  0.57937972  0.74628530     0.07800
C496        C  0.61459291  0.57044442  0.72475773    -0.02300
Br497      Br  0.62361040  0.51821924  0.70069387    -0.00900
Br498      Br  0.69485806  0.58534647  0.69633529    -0.00900
Br499      Br  0.52378312  0.63030005  0.79384089    -0.00900
Br500      Br  0.59175770  0.69991185  0.78018670    -0.00900
C501        C  0.76674557  0.71139857  0.83303602    -0.02000
C502        C  0.73259145  0.72817450  0.81397287     0.07700
C503        C  0.71336521  0.75982660  0.83533822    -0.02100
C504        C  0.72786953  0.77421921  0.87614008    -0.02100
C505        C  0.76157466  0.75692612  0.89571867     0.07800
C506        C  0.78123330  0.72575889  0.87395405    -0.02300
Br507      Br  0.82743992  0.70237060  0.90079147    -0.00900
Br508      Br  0.79310677  0.66835382  0.80325948    -0.00900
Br509      Br  0.70154611  0.81759371  0.90548328    -0.00900
Br510      Br  0.66698436  0.78321533  0.80873834    -0.00900
C511        C  0.76838212  0.72099951  0.58172060    -0.02000
C512        C  0.75162012  0.75575195  0.56292402     0.07700
C513        C  0.72147768  0.77576081  0.58595235    -0.02100
C514        C  0.70811155  0.76107749  0.62774585    -0.02100
C515        C  0.72510889  0.72657224  0.64671704     0.07800
C516        C  0.75531661  0.70659176  0.62374691    -0.02300
Br517      Br  0.77960325  0.66027197  0.65072077    -0.00900
Br518      Br  0.81014248  0.69392423  0.55049815    -0.00900
Br519      Br  0.66690986  0.78840258  0.65949408    -0.00900
Br520      Br  0.69873732  0.82334061  0.56011864    -0.00900
loop_ 
_geom_bond_atom_site_label_1 
_geom_bond_atom_site_label_2 
_geom_bond_distance 
_geom_bond_site_symmetry_2 
_ccdc_geom_bond_type 
C1            C2   1.404       .  A
C1            C6   1.403       .  A
C1          C232   1.483       .  S
C2            C3   1.403       .  A
C2            H7   1.084       .  S
C3            C4   1.402       .  A
C3          C255   1.476       .  S
C4            C5   1.401       .  A
C4            H8   1.084       .  S
C5            C6   1.401       .  A
C5          C242   1.476       .  S
C6            H9   1.084       .  S
C10          C11   1.405   1_556  A
C10         C275   1.407       .  A
C10         C222   1.491       .  S
C11          C12   1.399       .  A
C11          H16   1.084       .  S
C12          C13   1.400   1_554  A
C12         C252   1.476       .  S
C13         C274   1.402       .  A
C13          H17   1.084       .  S
C14          C15   1.403       .  A
C14         C273   1.402       .  A
C14         C245   1.476       .  S
C15         C270   1.407       .  A
C15          H18   1.083       .  S
C19          C20   1.406       .  A
C19          C24   1.408       .  A
C19         C192   1.490       .  S
C20          C21   1.403       .  A
C20          H25   1.084       .  S
C21          C22   1.402       .  A
C21         C205   1.480       .  S
C22          C23   1.403       .  A
C22          H26   1.084       .  S
C23          C24   1.406       .  A
C23         C215   1.482       .  S
C24          H27   1.084       .  S
C28          C29   1.404       .  A
C28         C293   1.403       .  A
C28         C182   1.480       .  S
C29          C30   1.403       .  A
C29          H34   1.084       .  S
C30          C31   1.404       .  A
C30         C212   1.482       .  S
C31         C292   1.405       .  A
C31          H35   1.084       .  S
C32          C33   1.403       .  A
C32         C291   1.405       .  A
C32         C202   1.480       .  S
C33         C288   1.403       .  A
C33          H36   1.084       .  S
C37          C38   1.405       .  A
C37          C42   1.407       .  A
C37         C152   1.489       .  S
C38          C39   1.401       .  A
C38          H43   1.084       .  S
C39          C40   1.402       .  A
C39         C172   1.478       .  S
C40          C41   1.403       .  A
C40          H44   1.084       .  S
C41          C42   1.405       .  A
C41         C162   1.481       .  S
C42          H45   1.084       .  S
C46          C51   1.406   1_556  A
C46         C307   1.404       .  A
C46         C145   1.485       .  S
C47          C48   1.402       .  A
C47         C306   1.404       .  A
C47          H52   1.084       .  S
C48         C309   1.404       .  A
C48         C175   1.478       .  S
C49          C50   1.402   1_556  A
C49         C308   1.404       .  A
C49          H53   1.084       .  S
C50          C51   1.403       .  A
C50         C165   1.481       .  S
C51          H54   1.084       .  S
O55         Cu63   2.020   1_455  S
O55         C325   1.279       .  A
O56         Cu63   2.028   1_545  S
O56         C326   1.280       .  A
O57         Cu63   2.009   1_445  S
O57         C327   1.277       .  A
O58         Cu63   2.009       .  S
O58         C328   1.277       .  A
O59         Cu64   2.019       .  S
O59          C68   1.279   1_554  A
O60         Cu64   2.017   1_445  S
O60          C67   1.279       .  A
O61         Cu64   2.008   1_545  S
O61          C66   1.275       .  A
O62         Cu64   2.018   1_455  S
O62          C65   1.278   1_554  A
Cu63       Cu324   2.368       .  S
Cu64       Cu323   2.368   1_554  S
C65         C142   1.485       .  S
C65         O315   1.279       .  A
C66         C445   1.478       .  S
C66         O316   1.280   1_554  A
C67         C132   1.487       .  S
C67         O317   1.277   1_554  A
C68         C225   1.498       .  S
C68         O318   1.277       .  A
O69         Cu77   2.015       .  S
O69          C79   1.279       .  A
O70         Cu77   2.014       .  S
O70          C80   1.278       .  A
O71         Cu77   2.005       .  S
O71          C81   1.277       .  A
O72         Cu77   2.007       .  S
O72          C82   1.277       .  A
O73         Cu78   2.014       .  S
O73          C82   1.278       .  A
O74         Cu78   2.013       .  S
O74          C81   1.278       .  A
O75         Cu78   2.015       .  S
O75          C80   1.278       .  A
O76         Cu78   2.017       .  S
O76          C79   1.278       .  A
Cu77        Cu78   2.374       .  S
C79         C195   1.483       .  S
C80         C155   1.481       .  S
C81         C235   1.478       .  S
C82         C125   1.479       .  S
C83          C84   1.407       .  A
C83         C348   1.404   1_554  A
C83         C135   1.489       .  S
C84          C85   1.405       .  A
C84          H89   1.084       .  S
C85          C86   1.403       .  A
C85         C115   1.482       .  S
C86         C347   1.402   1_554  A
C86          H90   1.084       .  S
C87          C88   1.401       .  A
C87         C346   1.402       .  A
C87         C105   1.480       .  S
C88         C343   1.404       .  A
C88          H91   1.084       .  S
C92          C93   1.407       .  A
C92          C97   1.404       .  A
C92         C122   1.488       .  S
C93          C94   1.404       .  A
C93          H98   1.084       .  S
C94          C95   1.403       .  A
C94         C112   1.481       .  S
C95          C96   1.403       .  A
C95          H99   1.084       .  S
C96          C97   1.401       .  A
C96         C102   1.481       .  S
C97         H100   1.084       .  S
C101        C102   1.411       .  A
C101        C106   1.407       .  A
C101       Br108   1.931       .  S
C102        C103   1.410       .  A
C103        C104   1.408       .  A
C103       Br110   1.930       .  S
C104        C105   1.411       .  A
C104       Br109   1.931       .  S
C105        C106   1.409       .  A
C106       Br107   1.930       .  S
C111        C112   1.410       .  A
C111        C116   1.408       .  A
C111       Br118   1.930       .  S
C112        C113   1.410       .  A
C113        C114   1.409       .  A
C113       Br120   1.929       .  S
C114        C115   1.411       .  A
C114       Br119   1.930       .  S
C115        C116   1.409       .  A
C116       Br117   1.929       .  S
C121        C122   1.414       .  A
C121        C126   1.408       .  A
C121       Br128   1.933       .  S
C122        C123   1.413       .  A
C123        C124   1.409       .  A
C123       Br130   1.933       .  S
C124        C125   1.411       .  A
C124       Br129   1.932       .  S
C125        C126   1.411       .  A
C126       Br127   1.932       .  S
C131        C132   1.415       .  A
C131        C136   1.410       .  A
C131       Br138   1.933       .  S
C132        C393   1.415   1_554  A
C133        C134   1.409       .  A
C133        C392   1.415       .  A
C133       Br140   1.933       .  S
C134        C395   1.413       .  A
C134       Br139   1.934       .  S
C135        C136   1.412       .  A
C135        C394   1.413   1_554  A
C136       Br137   1.932       .  S
C141        C142   1.411   1_554  A
C141        C146   1.407   1_554  A
C141       Br148   1.920       .  S
C142        C403   1.412       .  A
C143        C144   1.411       .  A
C143        C402   1.412       .  A
C143       Br150   1.931       .  S
C144        C405   1.413       .  A
C144       Br149   1.931       .  S
C145        C146   1.409       .  A
C145        C404   1.413       .  A
C146       Br147   1.934   1_556  S
C151        C152   1.414       .  A
C151        C156   1.409       .  A
C151       Br158   1.932       .  S
C152        C153   1.413       .  A
C153        C154   1.410       .  A
C153       Br160   1.932       .  S
C154        C155   1.412       .  A
C154       Br159   1.931       .  S
C155        C156   1.411       .  A
C156       Br157   1.931       .  S
C161        C162   1.410       .  A
C161        C166   1.409       .  A
C161       Br168   1.929       .  S
C162        C163   1.409       .  A
C163        C164   1.409       .  A
C163       Br170   1.929       .  S
C164        C165   1.410       .  A
C164       Br169   1.928       .  S
C165        C166   1.409       .  A
C166       Br167   1.929       .  S
C171        C172   1.408       .  A
C171        C176   1.408       .  A
C171       Br178   1.928       .  S
C172        C173   1.410       .  A
C173        C174   1.408       .  A
C173       Br180   1.930       .  S
C174        C175   1.409       .  A
C174       Br179   1.929       .  S
C175        C176   1.409       .  A
C176       Br177   1.929       .  S
C181        C182   1.410       .  A
C181        C186   1.409       .  A
C181       Br188   1.929       .  S
C182        C443   1.408       .  A
C183        C184   1.407       .  A
C183        C442   1.408       .  A
C183       Br190   1.930       .  S
C184        C445   1.408       .  A
C184       Br189   1.924       .  S
C185        C186   1.409       .  A
C185        C444   1.408       .  A
C185        C326   1.478       .  S
C186       Br187   1.926       .  S
C191        C192   1.413       .  A
C191        C196   1.410       .  A
C191       Br198   1.931       .  S
C192        C193   1.413       .  A
C193        C194   1.411       .  A
C193       Br200   1.931       .  S
C194        C195   1.412       .  A
C194       Br199   1.932       .  S
C195        C196   1.411       .  A
C196       Br197   1.932       .  S
C201        C202   1.409       .  A
C201        C206   1.409       .  A
C201       Br208   1.929       .  S
C202        C203   1.409       .  A
C203        C204   1.408       .  A
C203       Br210   1.929       .  S
C204        C205   1.409       .  A
C204       Br209   1.929       .  S
C205        C206   1.409       .  A
C206       Br207   1.929       .  S
C211        C212   1.409       .  A
C211        C216   1.408       .  A
C211       Br218   1.929       .  S
C212        C213   1.410       .  A
C213        C214   1.410       .  A
C213       Br220   1.929       .  S
C214        C215   1.410       .  A
C214       Br219   1.929       .  S
C215        C216   1.410       .  A
C216       Br217   1.929       .  S
C221        C226   1.411       .  A
C221        C482   1.412       .  A
C221       Br228   1.935       .  S
C222        C223   1.411   1_556  A
C222        C481   1.412       .  A
C223        C224   1.406       .  A
C223       Br230   1.937       .  S
C224        C225   1.419   1_554  A
C224       Br229   1.931       .  S
C225        C486   1.423       .  A
C226        C485   1.423       .  A
C226       Br227   1.936       .  S
C231        C232   1.411       .  A
C231        C236   1.408       .  A
C231       Br238   1.931       .  S
C232        C233   1.412       .  A
C233        C234   1.408       .  A
C233       Br240   1.931       .  S
C234        C235   1.411       .  A
C234       Br239   1.932       .  S
C235        C236   1.412       .  A
C236       Br237   1.932       .  S
C241        C242   1.409       .  A
C241        C246   1.408       .  A
C241       Br248   1.929       .  S
C242        C243   1.408       .  A
C243        C244   1.406       .  A
C243       Br250   1.930       .  S
C244        C245   1.409       .  A
C244       Br249   1.930       .  S
C245        C246   1.408       .  A
C246       Br247   1.928       .  S
C251        C252   1.410       .  A
C251        C256   1.407       .  A
C251       Br258   1.931       .  S
C252        C253   1.408       .  A
C253        C254   1.407       .  A
C253       Br260   1.929       .  S
C254        C255   1.409       .  A
C254       Br259   1.928       .  S
C255        C256   1.409       .  A
C256       Br257   1.930       .  S
C261        C262   1.404       .  A
C261        C266   1.403       .  A
C261        C492   1.483       .  S
C262        C263   1.403       .  A
C262        H267   1.084       .  S
C263        C264   1.402       .  A
C263        C515   1.476       .  S
C264        C265   1.401       .  A
C264        H268   1.084       .  S
C265        C266   1.401       .  A
C265        C502   1.476       .  S
C266        H269   1.084       .  S
C270        C271   1.405       .  A
C270        C482   1.491       .  S
C271        C272   1.399       .  A
C271        H276   1.084       .  S
C272        C273   1.400       .  A
C272        C512   1.476       .  S
C273        H277   1.084       .  S
C274        C275   1.403       .  A
C274        C505   1.476       .  S
C275        H278   1.083       .  S
C279        C280   1.406       .  A
C279        C284   1.408       .  A
C279        C452   1.490       .  S
C280        C281   1.403       .  A
C280        H285   1.084       .  S
C281        C282   1.402       .  A
C281        C465   1.480       .  S
C282        C283   1.403       .  A
C282        H286   1.084       .  S
C283        C284   1.406       .  A
C283        C475   1.482       .  S
C284        H287   1.084       .  S
C288        C289   1.404   1_554  A
C288        C442   1.480       .  S
C289        C290   1.403       .  A
C289        H294   1.084       .  S
C290        C291   1.404   1_556  A
C290        C472   1.482       .  S
C291        H295   1.084       .  S
C292        C293   1.403       .  A
C292        C462   1.480       .  S
C293        H296   1.084       .  S
C297        C298   1.405       .  A
C297        C302   1.407       .  A
C297        C412   1.489       .  S
C298        C299   1.401       .  A
C298        H303   1.084       .  S
C299        C300   1.402       .  A
C299        C432   1.478       .  S
C300        C301   1.403       .  A
C300        H304   1.084       .  S
C301        C302   1.405       .  A
C301        C422   1.481       .  S
C302        H305   1.084       .  S
C306        C311   1.406       .  A
C306        C405   1.485       .  S
C307        C308   1.402       .  A
C307        H312   1.084       .  S
C308        C435   1.478       .  S
C309        C310   1.402       .  A
C309        H313   1.084       .  S
C310        C311   1.403       .  A
C310        C425   1.481       .  S
C311        H314   1.084       .  S
O315       Cu323   2.020   1_455  S
O316       Cu323   2.028   1_545  S
O317       Cu323   2.009   1_445  S
O318       Cu323   2.009       .  S
O319       Cu324   2.019       .  S
O319        C328   1.279       .  A
O320       Cu324   2.018   1_445  S
O320        C327   1.279       .  A
O321       Cu324   2.008   1_545  S
O321        C326   1.275       .  A
O322       Cu324   2.018   1_455  S
O322        C325   1.278       .  A
C325        C402   1.485       .  S
C327        C392   1.487       .  S
C328        C485   1.498       .  S
O329       Cu337   2.015       .  S
O329        C339   1.279       .  A
O330       Cu337   2.014       .  S
O330        C340   1.278       .  A
O331       Cu337   2.005       .  S
O331        C341   1.277       .  A
O332       Cu337   2.007       .  S
O332        C342   1.277       .  A
O333       Cu338   2.014       .  S
O333        C342   1.278       .  A
O334       Cu338   2.013       .  S
O334        C341   1.278       .  A
O335       Cu338   2.015       .  S
O335        C340   1.278       .  A
O336       Cu338   2.017       .  S
O336        C339   1.278       .  A
Cu337      Cu338   2.374       .  S
C339        C455   1.483       .  S
C340        C415   1.481       .  S
C341        C495   1.478       .  S
C342        C385   1.479       .  S
C343        C344   1.407       .  A
C343        C395   1.489       .  S
C344        C345   1.406       .  A
C344        H349   1.084       .  S
C345        C346   1.403       .  A
C345        C375   1.482       .  S
C346        H350   1.084       .  S
C347        C348   1.401       .  A
C347        C365   1.480       .  S
C348        H351   1.084       .  S
C352        C353   1.407       .  A
C352        C357   1.404       .  A
C352        C382   1.488       .  S
C353        C354   1.404       .  A
C353        H358   1.084       .  S
C354        C355   1.403       .  A
C354        C372   1.481       .  S
C355        C356   1.403       .  A
C355        H359   1.084       .  S
C356        C357   1.401       .  A
C356        C362   1.481       .  S
C357        H360   1.084       .  S
C361        C362   1.411       .  A
C361        C366   1.407       .  A
C361       Br368   1.931       .  S
C362        C363   1.410       .  A
C363        C364   1.408       .  A
C363       Br370   1.930       .  S
C364        C365   1.411       .  A
C364       Br369   1.931       .  S
C365        C366   1.409       .  A
C366       Br367   1.930       .  S
C371        C372   1.410       .  A
C371        C376   1.408       .  A
C371       Br378   1.930       .  S
C372        C373   1.410       .  A
C373        C374   1.409       .  A
C373       Br380   1.929       .  S
C374        C375   1.411       .  A
C374       Br379   1.930       .  S
C375        C376   1.409       .  A
C376       Br377   1.929       .  S
C381        C382   1.414       .  A
C381        C386   1.408       .  A
C381       Br388   1.933       .  S
C382        C383   1.413       .  A
C383        C384   1.409       .  A
C383       Br390   1.933       .  S
C384        C385   1.411       .  A
C384       Br389   1.932       .  S
C385        C386   1.411       .  A
C386       Br387   1.932       .  S
C391        C392   1.415       .  A
C391        C396   1.410       .  A
C391       Br398   1.933       .  S
C393        C394   1.409       .  A
C393       Br400   1.933       .  S
C394       Br399   1.934       .  S
C395        C396   1.412       .  A
C396       Br397   1.932       .  S
C401        C402   1.411       .  A
C401        C406   1.407       .  A
C401       Br408   1.920       .  S
C403        C404   1.411       .  A
C403       Br410   1.931       .  S
C404       Br409   1.931       .  S
C405        C406   1.409       .  A
C406       Br407   1.934       .  S
C411        C412   1.414       .  A
C411        C416   1.409       .  A
C411       Br418   1.932       .  S
C412        C413   1.413       .  A
C413        C414   1.410       .  A
C413       Br420   1.932       .  S
C414        C415   1.412       .  A
C414       Br419   1.931       .  S
C415        C416   1.411       .  A
C416       Br417   1.931       .  S
C421        C422   1.410       .  A
C421        C426   1.409       .  A
C421       Br428   1.929       .  S
C422        C423   1.409       .  A
C423        C424   1.409       .  A
C423       Br430   1.929       .  S
C424        C425   1.410       .  A
C424       Br429   1.929       .  S
C425        C426   1.409       .  A
C426       Br427   1.929       .  S
C431        C432   1.408       .  A
C431        C436   1.408       .  A
C431       Br438   1.928       .  S
C432        C433   1.410       .  A
C433        C434   1.408       .  A
C433       Br440   1.930       .  S
C434        C435   1.409       .  A
C434       Br439   1.929       .  S
C435        C436   1.409       .  A
C436       Br437   1.929       .  S
C441        C442   1.410       .  A
C441        C446   1.409       .  A
C441       Br448   1.929       .  S
C443        C444   1.407       .  A
C443       Br450   1.930       .  S
C444       Br449   1.924       .  S
C445        C446   1.409       .  A
C446       Br447   1.926       .  S
C451        C452   1.413       .  A
C451        C456   1.410       .  A
C451       Br458   1.931       .  S
C452        C453   1.413       .  A
C453        C454   1.411       .  A
C453       Br460   1.931       .  S
C454        C455   1.412       .  A
C454       Br459   1.932       .  S
C455        C456   1.411       .  A
C456       Br457   1.932       .  S
C461        C462   1.409       .  A
C461        C466   1.409       .  A
C461       Br468   1.929       .  S
C462        C463   1.409       .  A
C463        C464   1.408       .  A
C463       Br470   1.929       .  S
C464        C465   1.409       .  A
C464       Br469   1.929       .  S
C465        C466   1.409       .  A
C466       Br467   1.929       .  S
C471        C472   1.409       .  A
C471        C476   1.408       .  A
C471       Br478   1.929       .  S
C472        C473   1.410       .  A
C473        C474   1.410       .  A
C473       Br480   1.929       .  S
C474        C475   1.410       .  A
C474       Br479   1.929       .  S
C475        C476   1.410       .  A
C476       Br477   1.929       .  S
C481        C486   1.411       .  A
C481       Br488   1.935       .  S
C482        C483   1.411       .  A
C483        C484   1.406       .  A
C483       Br490   1.937       .  S
C484        C485   1.419       .  A
C484       Br489   1.931       .  S
C486       Br487   1.936       .  S
C491        C492   1.411       .  A
C491        C496   1.408       .  A
C491       Br498   1.931       .  S
C492        C493   1.412       .  A
C493        C494   1.408       .  A
C493       Br500   1.931       .  S
C494        C495   1.411       .  A
C494       Br499   1.932       .  S
C495        C496   1.412       .  A
C496       Br497   1.932       .  S
C501        C502   1.409       .  A
C501        C506   1.408       .  A
C501       Br508   1.929       .  S
C502        C503   1.408       .  A
C503        C504   1.406       .  A
C503       Br510   1.930       .  S
C504        C505   1.409       .  A
C504       Br509   1.930       .  S
C505        C506   1.408       .  A
C506       Br507   1.928       .  S
C511        C512   1.410       .  A
C511        C516   1.407       .  A
C511       Br518   1.931       .  S
C512        C513   1.408       .  A
C513        C514   1.407       .  A
C513       Br520   1.929       .  S
C514        C515   1.409       .  A
C514       Br519   1.928       .  S
C515        C516   1.409       .  A
C516       Br517   1.930       .  S
