geometry optimzed in LAMMPS
_audit_creation_date              2020-11-30 
_audit_creation_method            'lammps2cif' 
_symmetry_space_group_name_H-M    'P1' 
_symmetry_Int_Tables_number       1 
_symmetry_cell_setting            triclinic 
loop_ 
_symmetry_equiv_pos_as_xyz 
  x,y,z 
_cell_length_a                    51.29401407 
_cell_length_b                    51.32186699143912 
_cell_length_c                    94.0146863148041 
_cell_angle_alpha                 90.01262755833858 
_cell_angle_beta                  89.95362257698565 
_cell_angle_gamma                 89.99066315949041 
loop_ 
_atom_site_label 
_atom_site_type_symbol 
_atom_site_fract_x 
_atom_site_fract_y 
_atom_site_fract_z 
_atom_site_charge 
N1          N  0.73218351  0.97438430  0.35103582    -0.26900
N2          N  0.75414874  0.96449988  0.35604300    -0.34800
C3          C  0.75901302  0.94175838  0.34945782     0.01400
C4          C  0.73895893  0.93688630  0.34001910     0.07400
C5          C  0.72240766  0.95807960  0.34118052    -0.05700
H6          H  0.77599628  0.92974335  0.35132793     0.08100
H7          H  0.70492071  0.96168799  0.33506515     0.09300
Cu8        Cu  0.77675553  0.98220109  0.37153361     0.44200
Cu9        Cu  0.71723802  0.01019219  0.35730022     0.42000
Cu10       Cu  0.75408480  0.04419880  0.38465394     0.43900
N11         N  0.79516432  0.00251953  0.38771472    -0.34300
N12         N  0.78680234  0.02512467  0.39267550    -0.28600
C13         C  0.80240151  0.03260524  0.40344878    -0.04700
C14         C  0.82177303  0.01399073  0.40520878     0.07500
C15         C  0.81628547  0.99506834  0.39514143     0.01300
H16         H  0.79950044  0.05001626  0.40974136     0.09000
H17         H  0.82673191  0.97701710  0.39344264     0.08100
N18         N  0.72085793  0.05924735  0.37489637    -0.35800
N19         N  0.70750893  0.04691488  0.36491927    -0.27900
C20         C  0.68702875  0.06170783  0.36104962    -0.03200
C21         C  0.68759993  0.08455366  0.36888368     0.05400
C22         C  0.70912830  0.08215690  0.37766419     0.03500
H23         H  0.67241061  0.05595769  0.35337755     0.08600
H24         H  0.71558967  0.09593301  0.38562662     0.07500
O25         O  0.75484744  0.78721804  0.26181683    -0.72600
O26         O  0.75812111  0.73095774  0.23254430    -0.73600
O27         O  0.75986529  0.78629333  0.23176932    -0.62200
O28         O  0.75283386  0.73235314  0.26261590    -0.70600
O29         O  0.70993070  0.73386582  0.26048503    -0.70100
O30         O  0.71678192  0.78668243  0.22941941    -0.61400
O31         O  0.71525956  0.73152174  0.23037140    -0.73900
O32         O  0.71179600  0.78899450  0.25951765    -0.72700
Cu33       Cu  0.75790070  0.75915201  0.24724454     1.04600
Cu34       Cu  0.71193512  0.76031471  0.24486438     1.04300
C35         C  0.73288677  0.79700376  0.26529126     0.93600
C36         C  0.73742640  0.72216902  0.22675480     0.92800
C37         C  0.73927596  0.79491891  0.22574035     0.84900
C38         C  0.73020097  0.72486734  0.26662169     0.91200
N39         N  0.73133418  0.55677792  0.35822350    -0.26900
N40         N  0.71097529  0.56836400  0.36412627    -0.34800
C41         C  0.70402704  0.58885333  0.35603594     0.01400
C42         C  0.72054308  0.58987785  0.34440874     0.07400
C43         C  0.73774409  0.56943895  0.34621584    -0.05700
H44         H  0.68797438  0.60184525  0.35835193     0.08100
H45         H  0.75403869  0.56434812  0.33945664     0.09300
Cu46       Cu  0.69268855  0.55518572  0.38250255     0.44200
Cu47       Cu  0.74954032  0.52390741  0.36623735     0.42000
Cu48       Cu  0.71568043  0.49278145  0.39492048     0.43900
N49         N  0.67626329  0.53533018  0.39955777    -0.34300
N50         N  0.68438241  0.51214103  0.40378080    -0.28600
C51         C  0.66924131  0.50381429  0.41452368    -0.04700
C52         C  0.65093169  0.52283515  0.41734635     0.07500
C53         C  0.65576878  0.54248130  0.40760699     0.01300
H54         H  0.67140629  0.48528444  0.41987404     0.09000
H55         H  0.64487375  0.56037232  0.40628826     0.08100
N56         N  0.74863143  0.47745877  0.38551525    -0.35800
N57         N  0.76153940  0.48902149  0.37512901    -0.27900
C58         C  0.78174705  0.47385336  0.37129634    -0.03200
C59         C  0.78161758  0.45180818  0.37979858     0.05400
C60         C  0.76014088  0.45465320  0.38856433     0.03500
H61         H  0.79533362  0.47836915  0.36283378     0.08600
H62         H  0.75266621  0.44082055  0.39620099     0.07500
N63         N  0.73941229  0.54408902  0.13969778    -0.26900
N64         N  0.76030552  0.55586800  0.13457310    -0.34800
C65         C  0.76585024  0.57655991  0.14282253     0.01400
C66         C  0.74776447  0.57766322  0.15377624     0.07400
C67         C  0.73107462  0.55695171  0.15130466    -0.05700
H68         H  0.78178877  0.58992619  0.14094555     0.08100
H69         H  0.71381548  0.55187792  0.15732489     0.09300
Cu70       Cu  0.77976978  0.54332688  0.11640378     0.44200
Cu71       Cu  0.72289705  0.51146267  0.13045921     0.42000
Cu72       Cu  0.75335922  0.48546357  0.09879424     0.43900
N73         N  0.79536116  0.52696720  0.09802353    -0.34300
N74         N  0.78559209  0.50625810  0.09153644    -0.28600
C75         C  0.80012397  0.50097754  0.07995872    -0.04700
C76         C  0.81994261  0.51917986  0.07915205     0.07500
C77         C  0.81649838  0.53521308  0.09081510     0.01300
H78         H  0.79679084  0.48482028  0.07279574     0.09000
H79         H  0.82848344  0.55162933  0.09385002     0.08100
N80         N  0.72013124  0.46946308  0.10805244    -0.35800
N81         N  0.70900336  0.47937653  0.11952449    -0.27900
C82         C  0.68775328  0.46531082  0.12277392    -0.03200
C83         C  0.68508257  0.44562323  0.11282985     0.05400
C84         C  0.70624142  0.44861590  0.10375426     0.03500
H85         H  0.67513204  0.46915085  0.13176279     0.08600
H86         H  0.71134400  0.43640111  0.09479881     0.07500
N87         N  0.72948314  0.96506683  0.13600572    -0.26900
N88         N  0.70642674  0.95527611  0.13272692    -0.34800
C89         C  0.70317222  0.93273871  0.13983384     0.01400
C90         C  0.72541747  0.92797517  0.14779087     0.07400
C91         C  0.74152594  0.94906281  0.14521188    -0.05700
H92         H  0.68572405  0.92092279  0.13944800     0.08100
H93         H  0.76023134  0.95298002  0.15006913     0.09300
Cu94       Cu  0.68031990  0.97368522  0.11907082     0.44200
Cu95       Cu  0.74293239  0.00055006  0.12866092     0.42000
Cu96       Cu  0.70057813  0.03712448  0.10537243     0.43900
N97         N  0.65859839  0.99553916  0.10465604    -0.34300
N98         N  0.66594070  0.01850268  0.09967000    -0.28600
C99         C  0.64819436  0.02672277  0.09012368    -0.04700
C100        C  0.62851948  0.00825997  0.08915084     0.07500
C101        C  0.63601125  0.98862708  0.09841294     0.01300
H102        H  0.64996544  0.04443469  0.08395941     0.09000
H103        H  0.62603524  0.97036568  0.10025927     0.08100
N104        N  0.73687426  0.05053788  0.11223221    -0.35800
N105        N  0.75220900  0.03696143  0.12076256    -0.27900
C106        C  0.77425642  0.05042569  0.12313507    -0.03200
C107        C  0.77301008  0.07347058  0.11558162     0.05400
C108        C  0.74890472  0.07306878  0.10890516     0.03500
H109        H  0.79020582  0.04374325  0.12971740     0.08600
H110        H  0.74078554  0.08799566  0.10209955     0.07500
C111        C  0.49591896  0.00811430  0.00998349     0.02600
C112        C  0.47690536  0.02800924  0.00931933     0.02600
C113        C  0.45857246  0.02783894  0.99826310    -0.17900
C114        C  0.45899477  0.00832610  0.98779238     0.02600
C115        C  0.47840358  0.98870624  0.98819227     0.02600
C116        C  0.49666823  0.98884446  0.99934140    -0.17900
H117        H  0.51161757  0.97392225  0.99971992     0.04700
H118        H  0.44391770  0.04304314  0.99777524     0.04700
N119        N  0.24324644  0.04850508  0.85095408    -0.26900
N120        N  0.26053519  0.06210517  0.85829674    -0.34800
C121        C  0.26396995  0.08540023  0.85191946     0.01400
C122        C  0.24844473  0.08626878  0.83987166     0.07400
C123        C  0.23545433  0.06263479  0.83967567    -0.05700
H124        H  0.27728660  0.10031525  0.85555932     0.08100
H125        H  0.22143920  0.05613490  0.83184561     0.09300
Cu126      Cu  0.27983585  0.04733412  0.87611253     0.44200
Cu127      Cu  0.23064390  0.01134758  0.85655792     0.42000
Cu128      Cu  0.26060787  0.98193255  0.88718232     0.43900
N129        N  0.29777562  0.02650704  0.89249188    -0.34300
N130        N  0.29084918  0.00269982  0.89634575    -0.28600
C131        C  0.30647096  0.99458297  0.90693614    -0.04700
C132        C  0.32393863  0.01426448  0.91004203     0.07500
C133        C  0.31801169  0.03414930  0.90059969     0.01300
H134        H  0.30501543  0.97581441  0.91211709     0.09000
H135        H  0.32794391  0.05261608  0.89948231     0.08100
N136        N  0.23000013  0.96495808  0.87623346    -0.35800
N137        N  0.21903507  0.97566893  0.86494431    -0.27900
C138        C  0.19880394  0.96078456  0.86083968    -0.03200
C139        C  0.19710760  0.93954472  0.86988924     0.05400
C140        C  0.21709957  0.94298601  0.87959858     0.03500
H141        H  0.18573463  0.96551287  0.85218824     0.08600
H142        H  0.22108173  0.93131757  0.88892053     0.07500
N143        N  0.22632860  0.47219939  0.85029425    -0.26900
N144        N  0.20503154  0.46110181  0.85544336    -0.34800
C145        C  0.19976428  0.43957119  0.84778121     0.01400
C146        C  0.21879615  0.43674938  0.83743018     0.07400
C147        C  0.23511267  0.45800065  0.83924285    -0.05700
H148        H  0.18322418  0.42691200  0.84958269     0.08100
H149        H  0.25190639  0.46303014  0.83283973     0.09300
Cu150      Cu  0.18365758  0.47570079  0.87255519     0.44200
Cu151      Cu  0.24245017  0.50648875  0.85820684     0.42000
Cu152      Cu  0.20742068  0.53581665  0.88750686     0.43900
N153        N  0.16627596  0.49414177  0.88990249    -0.34300
N154        N  0.17500270  0.51629015  0.89526571    -0.28600
C155        C  0.15989413  0.52322909  0.90633474    -0.04700
C156        C  0.14085533  0.50442739  0.90819052     0.07500
C157        C  0.14536705  0.48636362  0.89747643     0.01300
H158        H  0.16277398  0.54054627  0.91270911     0.09000
H159        H  0.13407540  0.46911543  0.89513963     0.08100
N160        N  0.24078702  0.55177212  0.87860014    -0.35800
N161        N  0.25387520  0.54104402  0.86798735    -0.27900
C162        C  0.27475112  0.55600828  0.86500933    -0.03200
C163        C  0.27454912  0.57733000  0.87406059     0.05400
C164        C  0.25287828  0.57381017  0.88261589     0.03500
H165        H  0.28898576  0.55175014  0.85683261     0.08600
H166        H  0.24669286  0.58590488  0.89141423     0.07500
O167        O  0.24537657  0.28965412  0.75689263    -0.72600
O168        O  0.24729294  0.22989910  0.72901876    -0.73600
O169        O  0.24577134  0.28499706  0.72665549    -0.62200
O170        O  0.24735964  0.23449633  0.75922983    -0.70600
O171        O  0.20434869  0.23226473  0.75918896    -0.70100
O172        O  0.20250558  0.28482061  0.72704256    -0.61400
O173        O  0.20400949  0.22959982  0.72880223    -0.73900
O174        O  0.20215319  0.28738713  0.75733278    -0.72700
Cu175      Cu  0.24794488  0.25982080  0.74294567     1.04600
Cu176      Cu  0.20174704  0.25846298  0.74308160     1.04300
C177        C  0.22341217  0.29746235  0.76173042     0.93600
C178        C  0.22577410  0.22054079  0.72444555     0.92800
C179        C  0.22398779  0.29282587  0.72166195     0.84900
C180        C  0.22626812  0.22525670  0.76444377     0.91200
N181        N  0.21852764  0.04330302  0.63781115    -0.26900
N182        N  0.19573565  0.05262548  0.63369535    -0.34800
C183        C  0.18983549  0.07357789  0.64168898     0.01400
C184        C  0.20963601  0.07728249  0.65152506     0.07400
C185        C  0.22764597  0.05792038  0.64858134    -0.05700
H186        H  0.17245292  0.08528494  0.64039534     0.08100
H187        H  0.24597835  0.05456439  0.65396291     0.09300
Cu188      Cu  0.17373327  0.03588354  0.61755456     0.44200
Cu189      Cu  0.23611445  0.01102933  0.62866725     0.42000
Cu190      Cu  0.19978318  0.97664588  0.60146325     0.43900
N191        N  0.15614058  0.01621564  0.60079249    -0.34300
N192        N  0.16544073  0.99466306  0.59496785    -0.28600
C193        C  0.15027693  0.98804720  0.58385273    -0.04700
C194        C  0.13074633  0.00650699  0.58248934     0.07500
C195        C  0.13487885  0.02384931  0.59354327     0.01300
H196        H  0.15385822  0.97163577  0.57689463     0.09000
H197        H  0.12348582  0.04093335  0.59610415     0.08100
N198        N  0.23618499  0.96483284  0.60880614    -0.35800
N199        N  0.24957845  0.97779711  0.61851498    -0.27900
C200        C  0.27243159  0.96564148  0.62073623    -0.03200
C201        C  0.27340302  0.94377729  0.61216384     0.05400
C202        C  0.25016324  0.94395569  0.60465552     0.03500
H203        H  0.28710381  0.97201015  0.62823490     0.08600
H204        H  0.24399811  0.93023367  0.59660171     0.07500
N205        N  0.22928109  0.47114684  0.63540827    -0.26900
N206        N  0.25104371  0.46047258  0.63060592    -0.34800
C207        C  0.25571237  0.43836198  0.63786374     0.01400
C208        C  0.23571255  0.43467824  0.64753755     0.07400
C209        C  0.21945693  0.45600704  0.64580743    -0.05700
H210        H  0.27217406  0.42560590  0.63603008     0.08100
H211        H  0.20171522  0.46011984  0.65161768     0.09300
Cu212      Cu  0.27262878  0.47568066  0.61386488     0.44200
Cu213      Cu  0.21356627  0.50538202  0.62721602     0.42000
Cu214      Cu  0.24837273  0.53532106  0.59782890     0.43900
N215        N  0.28984008  0.49362103  0.59644024    -0.34300
N216        N  0.28131312  0.51561183  0.59077023    -0.28600
C217        C  0.29683975  0.52209592  0.57978790    -0.04700
C218        C  0.31575594  0.50307425  0.57834486     0.07500
C219        C  0.31086240  0.48541812  0.58913348     0.01300
H220        H  0.29438514  0.53925310  0.57323737     0.09000
H221        H  0.32200823  0.46814879  0.59167562     0.08100
N222        N  0.21356166  0.54967218  0.60599307    -0.35800
N223        N  0.20088879  0.53871370  0.61668726    -0.27900
C224        C  0.17893888  0.55230562  0.61921462    -0.03200
C225        C  0.17748509  0.57258939  0.60952136     0.05400
C226        C  0.19998261  0.57051758  0.60144288     0.03500
H227        H  0.16510051  0.54781557  0.62754764     0.08600
H228        H  0.20592952  0.58310924  0.59279924     0.07500
C229        C  0.96641346  0.51457840  0.00743470     0.02600
C230        C  0.98428087  0.49361282  0.00709052     0.02600
C231        C  0.00342685  0.49274323  0.99640606    -0.17900
C232        C  0.00487479  0.51225326  0.98596752     0.02600
C233        C  0.98674048  0.53298341  0.98615184     0.02600
C234        C  0.96767159  0.53388883  0.99686655    -0.17900
H235        H  0.95358869  0.54964293  0.99692491     0.04700
H236        H  0.01727513  0.47678581  0.99621757     0.04700
O237        O  0.75849353  0.73692966  0.76328768    -0.72600
O238        O  0.70458635  0.73445249  0.73233550    -0.73600
O239        O  0.76010682  0.73597313  0.73308813    -0.62200
O240        O  0.70275579  0.73599269  0.76267037    -0.70600
O241        O  0.70304021  0.77923333  0.76260720    -0.70100
O242        O  0.75778070  0.77915413  0.73230706    -0.61400
O243        O  0.70241112  0.77766774  0.73242167    -0.73900
O244        O  0.75850657  0.77998891  0.76251630    -0.72700
Cu245      Cu  0.73150843  0.73431048  0.74788206     1.04600
Cu246      Cu  0.73041345  0.78049110  0.74745270     1.04300
C247        C  0.76748986  0.75873762  0.76765653     0.93600
C248        C  0.69477447  0.75562603  0.72762324     0.92800
C249        C  0.76759540  0.75776472  0.72790626     0.84900
C250        C  0.69388803  0.75774696  0.76726476     0.91200
N251        N  0.51772249  0.76631753  0.85468651    -0.26900
N252        N  0.52712289  0.78926034  0.85855089    -0.34800
C253        C  0.54925982  0.79381340  0.85123005     0.01400
C254        C  0.55422426  0.77253795  0.84256607     0.07400
C255        C  0.53372335  0.75559107  0.84495680    -0.05700
H256        H  0.56086536  0.81133504  0.85211175     0.08100
H257        H  0.53036866  0.73708477  0.83975828     0.09300
Cu258      Cu  0.50936768  0.81321713  0.87372285     0.44200
Cu259      Cu  0.48290199  0.75098458  0.86222007     0.42000
Cu260      Cu  0.44769379  0.78969555  0.88786866     0.43900
N261        N  0.48830987  0.83224927  0.88970041    -0.34300
N262        N  0.46575712  0.82368730  0.89466820    -0.28600
C263        C  0.45786585  0.83927890  0.90533774    -0.04700
C264        C  0.47615196  0.85885039  0.90718275     0.07500
C265        C  0.49533733  0.85355368  0.89715879     0.01300
H266        H  0.44087087  0.83554076  0.91182681     0.09000
H267        H  0.51341492  0.86404089  0.89565887     0.08100
N268        N  0.43465331  0.75387071  0.88048820    -0.35800
N269        N  0.44747559  0.73982312  0.87099111    -0.27900
C270        C  0.43403545  0.71783843  0.86838083    -0.03200
C271        C  0.41191513  0.71785980  0.87679586     0.05400
C272        C  0.41281604  0.74107446  0.88427319     0.03500
H273        H  0.44004060  0.70281160  0.86099457     0.08600
H274        H  0.39850246  0.74834713  0.89173642     0.07500
N275        N  0.94732116  0.75667157  0.85327448    -0.26900
N276        N  0.93547021  0.73659034  0.85927139    -0.34800
C277        C  0.91296223  0.73202967  0.85235606     0.01400
C278        C  0.91056759  0.75010270  0.84150838     0.07400
C279        C  0.93280525  0.76525047  0.84231274    -0.05700
H280        H  0.89959741  0.71637351  0.85486594     0.08100
H281        H  0.93793243  0.78146855  0.83552122     0.09300
Cu282      Cu  0.95093225  0.71583728  0.87631167     0.44200
Cu283      Cu  0.98224019  0.77208610  0.86055524     0.42000
Cu284      Cu  0.01138195  0.74122086  0.89116887     0.43900
N285        N  0.97148562  0.69787544  0.89268246    -0.34300
N286        N  0.99356647  0.70702881  0.89795317    -0.28600
C287        C  0.00195197  0.69091821  0.90826457    -0.04700
C288        C  0.98444856  0.67051998  0.90950114     0.07500
C289        C  0.96520854  0.67574515  0.89957592     0.01300
H290        H  0.01909769  0.69432736  0.91468156     0.09000
H291        H  0.94789379  0.66431036  0.89753522     0.08100
N292        N  0.02602214  0.77495600  0.88190131    -0.35800
N293        N  0.01555232  0.78589009  0.87053100    -0.27900
C294        C  0.02992107  0.80669052  0.86678478    -0.03200
C295        C  0.05027187  0.80923771  0.87633634     0.05400
C296        C  0.04731229  0.78861215  0.88572287     0.03500
H297        H  0.02592586  0.81901948  0.85770406     0.08600
H298        H  0.06017944  0.78323221  0.89433057     0.07500
N299        N  0.52097595  0.75748724  0.63888282    -0.26900
N300        N  0.52971261  0.73457748  0.63450015    -0.34800
C301        C  0.55147326  0.72860595  0.64181817     0.01400
C302        C  0.55695653  0.74886759  0.65106750     0.07400
C303        C  0.53709083  0.76674332  0.64900082    -0.05700
H304        H  0.56252894  0.71081324  0.64050264     0.08100
H305        H  0.53431288  0.78493390  0.65461872     0.09300
Cu306      Cu  0.51197039  0.71241993  0.61860168     0.44200
Cu307      Cu  0.48718365  0.77504112  0.63119268     0.42000
Cu308      Cu  0.45440672  0.74087427  0.60276510     0.43900
N309        N  0.49148108  0.69527288  0.60186781    -0.34300
N310        N  0.47056810  0.70592440  0.59608223    -0.28600
C311        C  0.46242803  0.69095764  0.58521944    -0.04700
C312        C  0.47873091  0.66950446  0.58416279     0.07500
C313        C  0.49712068  0.67311644  0.59481890     0.01300
H314        H  0.44653657  0.69615069  0.57824834     0.09000
H315        H  0.51359888  0.66068340  0.59715589     0.08100
N316        N  0.44175650  0.77626911  0.61085154    -0.35800
N317        N  0.45357017  0.78879930  0.62130745    -0.27900
C318        C  0.44074674  0.81122928  0.62384441    -0.03200
C319        C  0.42016161  0.81309960  0.61436019     0.05400
C320        C  0.42119443  0.79036817  0.60644433     0.03500
H321        H  0.44622870  0.82533470  0.63185695     0.08600
H322        H  0.40796462  0.78449262  0.59808186     0.07500
N323        N  0.94351201  0.76978300  0.64100046    -0.26900
N324        N  0.93316443  0.79199145  0.63663057    -0.34800
C325        C  0.91275507  0.79792360  0.64506214     0.01400
C326        C  0.91032847  0.77856845  0.65524134     0.07400
C327        C  0.92995009  0.76095697  0.65225165    -0.11700
H328        H  0.90029999  0.81475446  0.64371139     0.08100
H329        H  0.93396109  0.74293100  0.65779317     0.09300
Cu330      Cu  0.94681962  0.81250573  0.61904702     0.44200
Cu331      Cu  0.97529143  0.75191638  0.63144659     0.42000
Cu332      Cu  0.00112092  0.78253208  0.60001736     0.43900
N333        N  0.96345963  0.82796301  0.60070491    -0.34300
N334        N  0.98287273  0.81680011  0.59370327    -0.28600
C335        C  0.98829309  0.83101160  0.58205259    -0.04700
C336        C  0.97140598  0.85201432  0.58164837     0.07500
C337        C  0.95614340  0.84967103  0.59371466     0.01300
H338        H  0.00326200  0.82627618  0.57435918     0.09000
H339        H  0.94045609  0.86242882  0.59698001     0.08100
N340        N  0.01676933  0.74884661  0.60883313    -0.35800
N341        N  0.00727559  0.73767506  0.62039430    -0.27900
C342        C  0.02192245  0.71675413  0.62362575    -0.03200
C343        C  0.04189819  0.71487009  0.61375021     0.05400
C344        C  0.03774216  0.73531614  0.60440286     0.03500
H345        H  0.01833393  0.70391393  0.63254120     0.08600
H346        H  0.04938560  0.74024492  0.59518741     0.07500
N347        N  0.01309196  0.26375181  0.13814664    -0.26900
N348        N  0.02479730  0.28503436  0.13346959    -0.34800
C349        C  0.04663410  0.28887441  0.14116631     0.01400
C350        C  0.04847849  0.26920634  0.15124348     0.07400
C351        C  0.02700470  0.25351409  0.14888632    -0.05700
H352        H  0.06000105  0.30492713  0.13967115     0.08100
H353        H  0.02198297  0.23572126  0.15437224     0.09300
Cu354      Cu  0.00991172  0.30747509  0.11679759     0.44200
Cu355      Cu  0.97849109  0.24954941  0.12999688     0.42000
Cu356      Cu  0.94723367  0.28583331  0.10200357     0.43900
N357        N  0.99097117  0.32548676  0.09974247    -0.34300
N358        N  0.96828207  0.31782052  0.09450100    -0.28600
C359        C  0.96176123  0.33354513  0.08359537    -0.04700
C360        C  0.98137077  0.35178361  0.08171527     0.07500
C361        C  0.99944044  0.34620380  0.09225002     0.01300
H362        H  0.94417044  0.33162460  0.07734156     0.09000
H363        H  0.01722642  0.35669471  0.09453149     0.08100
N364        N  0.93143431  0.25211430  0.11092740    -0.35800
N365        N  0.94324707  0.23885299  0.12110018    -0.27900
C366        C  0.92902655  0.21767154  0.12429616    -0.03200
C367        C  0.90697261  0.21755023  0.11584410     0.05400
C368        C  0.90924705  0.23963061  0.10739344     0.03500
H369        H  0.93448185  0.20322960  0.13213835     0.08600
H370        H  0.89642173  0.24565184  0.09889545     0.07500
N371        N  0.44631856  0.25379070  0.14269424    -0.26900
N372        N  0.43392435  0.23344498  0.13730974    -0.34800
C373        C  0.41163860  0.22988401  0.14469287     0.01400
C374        C  0.41021518  0.24865619  0.15529558     0.07400
C375        C  0.43243718  0.26356044  0.15359580    -0.05700
H376        H  0.39747122  0.21476695  0.14250831     0.08100
H377        H  0.43779283  0.28076570  0.15952512     0.09300
Cu378      Cu  0.44802839  0.21192727  0.11995147     0.44200
Cu379      Cu  0.48105955  0.26864501  0.13491240     0.42000
Cu380      Cu  0.50940933  0.23534836  0.10514831     0.43900
N381        N  0.46707871  0.19457578  0.10260535    -0.34300
N382        N  0.48956476  0.20302922  0.09745010    -0.28600
C383        C  0.49671414  0.18789616  0.08641599    -0.04700
C384        C  0.47773785  0.16917078  0.08436290     0.07500
C385        C  0.45927565  0.17388240  0.09484862     0.01300
H386        H  0.51420167  0.19066228  0.08015578     0.09000
H387        H  0.44143731  0.16312813  0.09664254     0.08100
N388        N  0.52571705  0.26838360  0.11425844    -0.35800
N389        N  0.51523068  0.28072765  0.12518937    -0.27900
C390        C  0.52984655  0.30173884  0.12829732    -0.03200
C391        C  0.55073489  0.30245822  0.11897240     0.05400
C392        C  0.54733762  0.28114520  0.11013489     0.03500
H393        H  0.52547380  0.31559572  0.13663664     0.08600
H394        H  0.55909010  0.27580254  0.10104116     0.07500
O395        O  0.25515734  0.24300283  0.26099325    -0.72600
O396        O  0.19948583  0.23903330  0.23104179    -0.73600
O397        O  0.25467846  0.24287082  0.23094290    -0.62200
O398        O  0.19987819  0.23915630  0.26133723    -0.70600
O399        O  0.19670565  0.28205136  0.26115355    -0.70100
O400        O  0.25249065  0.28585619  0.23091414    -0.61400
O401        O  0.19706072  0.28198872  0.23081278    -0.73900
O402        O  0.25193095  0.28608394  0.26118771    -0.72700
Cu403      Cu  0.22735371  0.23955649  0.24608170     1.04600
Cu404      Cu  0.22438553  0.28549392  0.24601148     1.04300
C405        C  0.26252334  0.26514246  0.26571771     0.93600
C406        C  0.18955738  0.25990210  0.22601630     0.92800
C407        C  0.26260326  0.26481162  0.22616416     0.84900
C408        C  0.18958552  0.26004281  0.26618961     0.91200
N409        N  0.01226233  0.25245488  0.35300311    -0.26900
N410        N  0.02324059  0.23131141  0.35831669    -0.34800
C411        C  0.04526329  0.22620388  0.35105351     0.01400
C412        C  0.04802658  0.24485042  0.34053553     0.07400
C413        C  0.02689279  0.26133307  0.34217737    -0.05700
H414        H  0.05792319  0.20972903  0.35301396     0.08100
H415        H  0.02244298  0.27857434  0.33600946     0.09300
Cu416      Cu  0.00637241  0.20966060  0.37446034     0.44200
Cu417      Cu  0.97733845  0.26737181  0.36040417     0.42000
Cu418      Cu  0.94099765  0.22888203  0.38600143     0.43900
N419        N  0.98423583  0.18933307  0.38916576    -0.34300
N420        N  0.96030550  0.19577695  0.39308361    -0.28600
C421        C  0.95179125  0.17845339  0.40277022    -0.04700
C422        C  0.97126606  0.16025421  0.40498071     0.07500
C423        C  0.99162275  0.16791226  0.39631714     0.01300
H424        H  0.93322065  0.17958540  0.40819829     0.09000
H425        H  0.01059982  0.15883533  0.39545308     0.08100
N426        N  0.92803387  0.26421111  0.37789234    -0.35800
N427        N  0.94160751  0.27822066  0.36870324    -0.27900
C428        C  0.92864875  0.30034894  0.36589939    -0.03200
C429        C  0.90564160  0.30024281  0.37354916     0.05400
C430        C  0.90596866  0.27711686  0.38115917     0.03500
H431        H  0.93557863  0.31553090  0.35887109     0.08600
H432        H  0.89184107  0.27056746  0.38891212     0.07500
N433        N  0.43818135  0.27017501  0.35322500    -0.26900
N434        N  0.42881185  0.29258518  0.35796157    -0.34800
C435        C  0.40821067  0.29942231  0.34988326     0.01400
C436        C  0.40456189  0.28044156  0.33956554     0.07400
C437        C  0.42374489  0.26212639  0.34212970    -0.05700
H438        H  0.39640731  0.31654378  0.35165106     0.08100
H439        H  0.42708599  0.24425145  0.33627077     0.09300
Cu440      Cu  0.44425393  0.31256367  0.37542392     0.44200
Cu441      Cu  0.47062325  0.25150743  0.36159305     0.42000
Cu442      Cu  0.50381539  0.28410826  0.38989706     0.43900
N443        N  0.46414009  0.32745506  0.39306672    -0.34300
N444        N  0.48591436  0.31711593  0.39807502    -0.28600
C445        C  0.49388370  0.33086977  0.40943788    -0.04700
C446        C  0.47616245  0.35062537  0.41192021     0.07500
C447        C  0.45766736  0.34808190  0.40123354     0.01300
H448        H  0.51115438  0.32653976  0.41559655     0.09000
H449        H  0.44078288  0.36033222  0.39952700     0.08100
N450        N  0.51751762  0.24996020  0.38075334    -0.35800
N451        N  0.50502372  0.23774413  0.37044058    -0.27900
C452        C  0.51883310  0.21663068  0.36654773    -0.03200
C453        C  0.54103432  0.21532715  0.37490560     0.05400
C454        C  0.53965777  0.23695990  0.38369407     0.03500
H455        H  0.51358325  0.20389567  0.35785174     0.08600
H456        H  0.55382960  0.24291989  0.39157156     0.07500
C457        C  0.97602349  0.02652498  0.48305474     0.02600
C458        C  0.95636383  0.00734371  0.48348083     0.02600
C459        C  0.95613697  0.98924951  0.49464560    -0.17900
C460        C  0.97498065  0.99024722  0.50549111     0.02600
C461        C  0.99494858  0.00926683  0.50488988     0.02600
C462        C  0.99502489  0.02742191  0.49374723    -0.17900
H463        H  0.00983752  0.04247516  0.49343153     0.04700
H464        H  0.94106782  0.97445337  0.49497200     0.04700
C465        C  0.48362905  0.49228502  0.48628351     0.02600
C466        C  0.50159370  0.51306470  0.48643013     0.02600
C467        C  0.49995969  0.53218289  0.49706174    -0.17900
C468        C  0.48028047  0.53128201  0.50744348     0.02600
C469        C  0.46216399  0.51048544  0.50718967     0.02600
C470        C  0.46406592  0.49122604  0.49665906    -0.17900
H471        H  0.45013173  0.47533123  0.49650753     0.04700
H472        H  0.51416246  0.54783353  0.49728357     0.04700
C473        C  0.49716757  0.42785045  0.46757758    -0.22100
C474        C  0.48395023  0.43160421  0.45467649     0.09900
C475        C  0.47159958  0.45569244  0.45199923     0.10300
C476        C  0.47197660  0.47517699  0.46247380    -0.17000
C477        C  0.48492215  0.47136053  0.47542923    -0.27400
C478        C  0.49797288  0.44752979  0.47796588     0.18600
C479        C  0.48271389  0.41000019  0.44417447     0.12600
C480        C  0.45823624  0.46090220  0.43802620    -0.11800
H481        H  0.46189354  0.49339903  0.46061423     0.12900
C482        C  0.51279082  0.44223226  0.49149562    -0.22600
H483        H  0.50677115  0.40939456  0.46958516     0.08500
C484        C  0.50403973  0.40382864  0.43531544     0.04800
C485        C  0.50130657  0.38419772  0.42499705    -0.19900
C486        C  0.47772297  0.37058824  0.42330567    -0.12100
C487        C  0.45666665  0.37615808  0.43259288     0.13500
C488        C  0.45939926  0.39597521  0.44279005    -0.22600
C489        C  0.52942212  0.41839300  0.43653300    -0.05600
H490        H  0.51755051  0.37975544  0.41802151     0.15100
C491        C  0.43145379  0.36107123  0.43253939    -0.15800
H492        H  0.44320394  0.40047547  0.44979675     0.09400
H493        H  0.53348179  0.43799300  0.48889259     0.07200
H494        H  0.50422044  0.42507882  0.49696410     0.08400
H495        H  0.51245746  0.45887119  0.49901189     0.07500
H496        H  0.44189973  0.44701312  0.43650540     0.02400
H497        H  0.47242503  0.45860905  0.42918543     0.02900
H498        H  0.45017920  0.48096953  0.43753867     0.06400
H499        H  0.54394478  0.41155643  0.42859698     0.05300
H500        H  0.53783610  0.41554570  0.44729373    -0.00400
H501        H  0.52597017  0.43948402  0.43473628     0.01000
H502        H  0.42789812  0.35291237  0.44330900     0.04700
H503        H  0.43145915  0.34447078  0.42503968     0.06600
H504        H  0.41510815  0.37430003  0.42975739     0.07500
C505        C  0.95369772  0.10196502  0.42801469    -0.22100
C506        C  0.97381955  0.10282718  0.43807916     0.09900
C507        C  0.99345249  0.12196521  0.43693423     0.10300
C508        C  0.99232944  0.14004045  0.42578362    -0.17000
C509        C  0.97189474  0.13960101  0.41587368    -0.27400
C510        C  0.95247826  0.12008784  0.41687634     0.18600
C511        C  0.97408966  0.08338991  0.44968497     0.12600
C512        C  0.01518372  0.12376286  0.44767225    -0.11800
H513        H  0.00715948  0.15501984  0.42498499     0.12900
C514        C  0.93075594  0.11716654  0.40620595    -0.22600
H515        H  0.93893674  0.08690039  0.42880663     0.08500
C516        C  0.95622403  0.08468851  0.46109151     0.04800
C517        C  0.95771901  0.06613410  0.47199064    -0.19900
C518        C  0.97645799  0.04625617  0.47163209    -0.12100
C519        C  0.99413081  0.04475583  0.46012275     0.13500
C520        C  0.99272802  0.06342657  0.44928958    -0.22600
C521        C  0.93578222  0.10572548  0.46184274    -0.05600
H522        H  0.94407052  0.06693445  0.48079070     0.15100
C523        C  0.01420712  0.02344818  0.45874576    -0.15800
H524        H  0.00617270  0.06232980  0.44040289     0.09400
H525        H  0.91169363  0.11995045  0.41160069     0.07200
H526        H  0.93135945  0.09726531  0.40157267     0.08400
H527        H  0.93211855  0.13114015  0.39727026     0.07500
H528        H  0.02705432  0.10569698  0.44746424     0.02400
H529        H  0.00687782  0.12647156  0.45848262     0.02900
H530        H  0.02838084  0.14042130  0.44542794     0.06400
H531        H  0.92389143  0.10420351  0.47168776     0.05300
H532        H  0.92238336  0.10410653  0.45262602    -0.00400
H533        H  0.94527562  0.12516353  0.46172607     0.01000
H534        H  0.01092889  0.01262305  0.44867592     0.04700
H535        H  0.01352038  0.00918016  0.46757902     0.06600
H536        H  0.03400223  0.03218335  0.45850582     0.07500
C537        C  0.08454554  0.24886967  0.30539276    -0.22100
C538        C  0.11042342  0.24959823  0.31011225     0.09900
C539        C  0.11580687  0.24853769  0.32481615     0.10300
C540        C  0.09503178  0.24669049  0.33450609    -0.17000
C541        C  0.06906048  0.24649334  0.32981592    -0.27400
C542        C  0.06373814  0.24732372  0.31505656     0.18600
C543        C  0.13142962  0.25202636  0.29937494     0.12600
C544        C  0.14338972  0.24974354  0.33025521    -0.11800
H545        H  0.09903480  0.24588323  0.34582518     0.12900
C546        C  0.03631013  0.24560348  0.30939400    -0.22600
H547        H  0.08066284  0.24954953  0.29405999     0.08500
C548        C  0.14335043  0.22996740  0.29329979     0.04800
C549        C  0.16224862  0.23332614  0.28264547    -0.19900
C550        C  0.16946135  0.25828659  0.27771934    -0.12100
C551        C  0.15728389  0.28045572  0.28397445     0.13500
C552        C  0.13849845  0.27690705  0.29470086    -0.22600
C553        C  0.13580250  0.20287011  0.29791116    -0.05600
H554        H  0.17124134  0.21615685  0.27806420     0.15100
C555        C  0.16357347  0.30797165  0.27952741    -0.15800
H556        H  0.12898238  0.29368425  0.29942570     0.09400
H557        H  0.03598441  0.24475509  0.29758891     0.07200
H558        H  0.02494796  0.26297109  0.31265005     0.08400
H559        H  0.02672220  0.22772282  0.31349844     0.07500
H560        H  0.15261199  0.26827174  0.32681992     0.02400
H561        H  0.15484406  0.23315280  0.32599169     0.02900
H562        H  0.14412426  0.24883511  0.34205351     0.06400
H563        H  0.14691491  0.18771753  0.29203893     0.05300
H564        H  0.11472216  0.19966718  0.29589691    -0.00400
H565        H  0.13972539  0.20032401  0.30942880     0.01000
H566        H  0.15882078  0.31073895  0.26810990     0.04700
H567        H  0.18451426  0.31211328  0.28145761     0.06600
H568        H  0.15211720  0.32254771  0.28563944     0.07500
C569        C  0.32615495  0.25472544  0.28572352    -0.22100
C570        C  0.32285555  0.27161064  0.29731311     0.09900
C571        C  0.29972214  0.28639791  0.29846227     0.10300
C572        C  0.28040830  0.28393199  0.28796984    -0.17000
C573        C  0.28346583  0.26668486  0.27649716    -0.27400
C574        C  0.30668162  0.25190718  0.27534152     0.18600
C575        C  0.34390338  0.27350421  0.30810977     0.12600
C576        C  0.29517949  0.30438252  0.31088934    -0.11800
H577        H  0.26263017  0.29526583  0.28882890     0.12900
C578        C  0.31146050  0.23384045  0.26295872    -0.22600
H579        H  0.34410861  0.24370221  0.28481894     0.08500
C580        C  0.34886470  0.25307275  0.31779395     0.04800
C581        C  0.36887575  0.25587485  0.32787451    -0.19900
C582        C  0.38374070  0.27881047  0.32866700    -0.12100
C583        C  0.37898007  0.29912239  0.31883196     0.13500
C584        C  0.35918181  0.29614827  0.30862825    -0.22600
C585        C  0.33270569  0.22855167  0.31771120    -0.05600
H586        H  0.37268375  0.24025918  0.33532801     0.15100
C587        C  0.39529147  0.32352726  0.31866730    -0.15800
H588        H  0.35555918  0.31153302  0.30100442     0.09400
H589        H  0.33123475  0.22505225  0.26336670     0.07200
H590        H  0.30972768  0.24476289  0.25280418     0.08400
H591        H  0.29712840  0.21765623  0.26311267     0.07500
H592        H  0.31011169  0.32001331  0.31098740     0.02400
H593        H  0.29630824  0.29318717  0.32097520     0.02900
H594        H  0.27571039  0.31381064  0.31036204     0.06400
H595        H  0.33866616  0.21492451  0.32628707     0.05300
H596        H  0.33499989  0.21827529  0.30740332    -0.00400
H597        H  0.31184455  0.23353318  0.31933021     0.01000
H598        H  0.41619460  0.31835669  0.31744266     0.04700
H599        H  0.39247124  0.33457052  0.32867964     0.06600
H600        H  0.38985378  0.33659610  0.30973340     0.07500
C601        C  0.31214656  0.28602902  0.19761148    -0.22100
C602        C  0.32513221  0.26240778  0.19513935     0.09900
C603        C  0.31748733  0.23997458  0.20269509     0.10300
C604        C  0.29715950  0.24161654  0.21261304    -0.17000
C605        C  0.28395374  0.26518912  0.21529004    -0.27400
C606        C  0.29163405  0.28779006  0.20757293     0.18600
C607        C  0.34683558  0.26121696  0.18466839     0.12600
C608        C  0.33058728  0.21407761  0.20016606    -0.11800
H609        H  0.29171519  0.22418220  0.21837273     0.12900
C610        C  0.27839110  0.31376545  0.20953744    -0.22600
H611        H  0.31817421  0.30314597  0.19173422     0.08500
C612        C  0.34214191  0.25960005  0.16990043     0.04800
C613        C  0.36316747  0.25541968  0.16055430    -0.19900
C614        C  0.38879728  0.25305233  0.16564311    -0.12100
C615        C  0.39346232  0.25487828  0.18045302     0.13500
C616        C  0.37243601  0.25915389  0.18975061    -0.22600
C617        C  0.31490561  0.26174280  0.16405211    -0.05600
H618        H  0.35961680  0.25405129  0.14922377     0.15100
C619        C  0.42028021  0.25088048  0.18662174    -0.15800
H620        H  0.37582537  0.26010365  0.20111361     0.09400
H621        H  0.28650269  0.32883635  0.20230309     0.07200
H622        H  0.28123168  0.32077105  0.22059837     0.08400
H623        H  0.25726054  0.31192358  0.20718475     0.07500
H624        H  0.35152923  0.21531635  0.20302936     0.02400
H625        H  0.32875725  0.20858884  0.18878558     0.02900
H626        H  0.32171272  0.19832335  0.20665634     0.06400
H627        H  0.31459849  0.25967079  0.15229441     0.05300
H628        H  0.30656853  0.28106917  0.16678405    -0.00400
H629        H  0.30244684  0.24620740  0.16867466     0.01000
H630        H  0.43357543  0.26660834  0.18309052     0.04700
H631        H  0.42810426  0.23171286  0.18317755     0.06600
H632        H  0.41996371  0.25114935  0.19843526     0.07500
C633        C  0.08383818  0.25976436  0.18649001    -0.22100
C634        C  0.10990066  0.26061916  0.18208390     0.09900
C635        C  0.11579871  0.26359550  0.16751801     0.10300
C636        C  0.09536050  0.26620414  0.15766566    -0.17000
C637        C  0.06918517  0.26559995  0.16206354    -0.27400
C638        C  0.06336286  0.26231280  0.17668873     0.18600
C639        C  0.13057744  0.26039299  0.19309090     0.12600
C640        C  0.14363913  0.26443974  0.16244801    -0.11800
H641        H  0.09980495  0.26873247  0.14648507     0.12900
C642        C  0.03575621  0.26290645  0.18218440    -0.22600
H643        H  0.07956287  0.25775365  0.19773131     0.08500
C644        C  0.13726925  0.28331714  0.20045812     0.04800
C645        C  0.15646476  0.28236829  0.21104297    -0.19900
C646        C  0.16923590  0.25896449  0.21461707    -0.12100
C647        C  0.16236110  0.23584539  0.20711052     0.13500
C648        C  0.14314505  0.23698890  0.19644417    -0.22600
C649        C  0.12413325  0.30885571  0.19709805    -0.05600
H650        H  0.16135208  0.30019990  0.21662391     0.15100
C651        C  0.17503948  0.20989605  0.21006103    -0.15800
H652        H  0.13772539  0.21946745  0.19069640     0.09400
H653        H  0.03507640  0.26214088  0.19398744     0.07200
H654        H  0.02474551  0.24586730  0.17817375     0.08400
H655        H  0.02602681  0.28117780  0.17875124     0.07500
H656        H  0.15361061  0.24593955  0.16525200     0.02400
H657        H  0.15399865  0.28094432  0.16757646     0.02900
H658        H  0.14486874  0.26701988  0.15073797     0.06400
H659        H  0.13187000  0.32502515  0.20371643     0.05300
H660        H  0.10287705  0.30729018  0.19914421    -0.00400
H661        H  0.12736189  0.31389700  0.18574936     0.01000
H662        H  0.17091146  0.20376743  0.22115825     0.04700
H663        H  0.19640133  0.21129996  0.20831191     0.06600
H664        H  0.16751999  0.19435140  0.20293491     0.07500
C665        C  0.96727963  0.88650518  0.54594186    -0.22100
C666        C  0.97114164  0.91247022  0.55001637     0.09900
C667        C  0.97371898  0.91869561  0.56457774     0.10300
C668        C  0.97297856  0.89858728  0.57472151    -0.17000
C669        C  0.96993334  0.87245959  0.57060097    -0.27400
C670        C  0.96647457  0.86641371  0.55602705     0.18600
C671        C  0.97261444  0.93268057  0.53877977     0.12600
C672        C  0.97798756  0.94639617  0.56936158    -0.11800
H673        H  0.97548056  0.90318413  0.58589277     0.12900
C674        C  0.96107627  0.83923111  0.55070317    -0.22600
H675        H  0.96476793  0.88189402  0.53476630     0.08500
C676        C  0.99442481  0.93455896  0.52967039     0.04800
C677        C  0.99451984  0.95332950  0.51883765    -0.19900
C678        C  0.97374522  0.97088384  0.51721007    -0.12100
C679        C  0.95235075  0.96962013  0.52671714     0.13500
C680        C  0.95178552  0.95009183  0.53714241    -0.22600
C681        C  0.01776687  0.91706848  0.53152070    -0.05600
H682        H  0.01093514  0.95437395  0.51160265     0.15100
C683        C  0.93026251  0.98899334  0.52652876    -0.15800
H684        H  0.93514853  0.94871359  0.54422702     0.09400
H685        H  0.97725315  0.83281735  0.54367300     0.07200
H686        H  0.94266475  0.83921785  0.54449507     0.08400
H687        H  0.95869347  0.82477536  0.55933651     0.07500
H688        H  0.96097498  0.95858840  0.56640210     0.02400
H689        H  0.99576607  0.95438694  0.56423150     0.02900
H690        H  0.98051476  0.94771333  0.58107037     0.06400
H691        H  0.03356685  0.92194776  0.52388601     0.05300
H692        H  0.01213022  0.89645710  0.52975656    -0.00400
H693        H  0.02563010  0.91925017  0.54245424     0.01000
H694        H  0.91176792  0.97885526  0.52389544     0.04700
H695        H  0.93327463  0.00500605  0.51882668     0.06600
H696        H  0.92837055  0.99808673  0.53719983     0.07500
C697        C  0.47570174  0.59655622  0.52685006    -0.22100
C698        C  0.48020004  0.58883683  0.54092949     0.09900
C699        C  0.48426167  0.56226157  0.54402270     0.10300
C700        C  0.48442247  0.54405921  0.53286906    -0.17000
C701        C  0.47966577  0.55163138  0.51874279    -0.27400
C702        C  0.47519807  0.57832546  0.51571075     0.18600
C703        C  0.48020494  0.60897182  0.55225489     0.12600
C704        C  0.48811442  0.55309816  0.55909402    -0.11800
H705        H  0.48839689  0.52377582  0.53517867     0.12900
C706        C  0.46942345  0.58834016  0.50096991    -0.22600
H707        H  0.47235299  0.61699232  0.52455284     0.08500
C708        C  0.50337607  0.62142898  0.55659807     0.04800
C709        C  0.50224744  0.64085121  0.56711679    -0.19900
C710        C  0.47841325  0.64854542  0.57320953    -0.12100
C711        C  0.45517922  0.63579296  0.56887510     0.13500
C712        C  0.45645692  0.61613704  0.55847458    -0.22600
C713        C  0.52920932  0.61450632  0.54996098    -0.05600
H714        H  0.52006728  0.65048566  0.57039025     0.15100
C715        C  0.42907542  0.64197639  0.57542503    -0.15800
H716        H  0.43878768  0.60633721  0.55508359     0.09400
H717        H  0.48486712  0.60226016  0.49769587     0.07200
H718        H  0.45038521  0.59865041  0.50101914     0.08400
H719        H  0.46825797  0.57273056  0.49286637     0.07500
H720        H  0.47073403  0.55822503  0.56556187     0.02400
H721        H  0.50557333  0.56250992  0.56378255     0.02900
H722        H  0.49084528  0.53165028  0.55964409     0.06400
H723        H  0.54539579  0.62620886  0.55451181     0.05300
H724        H  0.52848457  0.61823132  0.53833653    -0.00400
H725        H  0.53363369  0.59361956  0.55179566     0.01000
H726        H  0.41379054  0.62810129  0.57186465     0.04700
H727        H  0.42259821  0.66167405  0.57219112     0.06600
H728        H  0.43033504  0.64073800  0.58719263     0.07500
C729        C  0.80472381  0.77487763  0.69427314    -0.22100
C730        C  0.82922776  0.76417668  0.69722002     0.09900
C731        C  0.83312543  0.75020259  0.70997590     0.10300
C732        C  0.81229955  0.74743004  0.71959546    -0.17000
C733        C  0.78785588  0.75860014  0.71676739    -0.27400
C734        C  0.78388827  0.77207168  0.70380427     0.18600
C735        C  0.85028962  0.76751567  0.68658753     0.12600
C736        C  0.85934125  0.73868960  0.71351574    -0.11800
H737        H  0.81531608  0.73722312  0.72955575     0.12900
C738        C  0.75781359  0.78307075  0.69945014    -0.22600
H739        H  0.80176142  0.78526210  0.68435843     0.08500
C740        C  0.85411912  0.74919039  0.67560936     0.04800
C741        C  0.87403443  0.75331258  0.66562047    -0.19900
C742        C  0.88977837  0.77565983  0.66615170    -0.12100
C743        C  0.88573436  0.79419832  0.67709649     0.13500
C744        C  0.86599087  0.78984163  0.68718573    -0.22600
C745        C  0.83691917  0.72551500  0.67433269    -0.05600
H746        H  0.87709430  0.73920981  0.65719614     0.15100
C747        C  0.90222621  0.81831462  0.67875718    -0.15800
H748        H  0.86285118  0.80392720  0.69561446     0.09400
H749        H  0.75209813  0.77477394  0.68899650     0.07200
H750        H  0.75929319  0.80457081  0.69843112     0.08400
H751        H  0.74193383  0.77843356  0.70702522     0.07500
H752        H  0.87418583  0.75440496  0.71401000     0.02400
H753        H  0.86511343  0.72439692  0.70523484     0.02900
H754        H  0.85909362  0.72850696  0.72393942     0.06400
H755        H  0.84242663  0.71325859  0.66506808     0.05300
H756        H  0.81632571  0.73167515  0.67294866    -0.00400
H757        H  0.83852572  0.71341517  0.68407032     0.01000
H758        H  0.88970324  0.83587814  0.67781391     0.04700
H759        H  0.91802002  0.81977160  0.67077140     0.06600
H760        H  0.91149989  0.81826252  0.68942611     0.07500
C761        C  0.82529124  0.77839334  0.79126392    -0.22100
C762        C  0.82882337  0.75562074  0.79923474     0.09900
C763        C  0.81205447  0.73425337  0.79704086     0.10300
C764        C  0.79214827  0.73610581  0.78684924    -0.17000
C765        C  0.78844928  0.75886103  0.77870423    -0.27400
C766        C  0.80541192  0.78036432  0.78101284     0.18600
C767        C  0.85012689  0.75462676  0.80990759     0.12600
C768        C  0.81543946  0.70932181  0.80530100    -0.11800
H769        H  0.77939664  0.71953885  0.78524951     0.12900
C770        C  0.80334050  0.80525800  0.77258562    -0.22600
H771        H  0.83829821  0.79470243  0.79306901     0.08500
C772        C  0.87637571  0.75082270  0.80586332     0.04800
C773        C  0.89576650  0.74975485  0.81639823    -0.19900
C774        C  0.88943665  0.75208506  0.83086565    -0.12100
C775        C  0.86322647  0.75641682  0.83488030     0.13500
C776        C  0.84387589  0.75760162  0.82433525    -0.22600
C777        C  0.88382162  0.74744566  0.79047324    -0.05600
H778        H  0.91592888  0.74663753  0.81335928     0.15100
C779        C  0.85573846  0.76075480  0.85019663    -0.15800
H780        H  0.82372397  0.76089785  0.82733157     0.09400
H781        H  0.81890150  0.81934995  0.77546825     0.07200
H782        H  0.78434692  0.81483512  0.77474538     0.08400
H783        H  0.80527305  0.80099504  0.76105262     0.07500
H784        H  0.81288672  0.71313078  0.81683844     0.02400
H785        H  0.83525021  0.70131293  0.80340008     0.02900
H786        H  0.80097673  0.69432510  0.80210095     0.06400
H787        H  0.90510464  0.74419708  0.78918517     0.05300
H788        H  0.87848698  0.76516285  0.78436815    -0.00400
H789        H  0.87342875  0.73037615  0.78594926     0.01000
H790        H  0.83462022  0.76507472  0.85134382     0.04700
H791        H  0.86683143  0.77752770  0.85455751     0.06600
H792        H  0.86002722  0.74308736  0.85655962     0.07500
C793        C  0.63048505  0.74723622  0.78774113    -0.22100
C794        C  0.63488269  0.76283312  0.79974718     0.09900
C795        C  0.65881000  0.77612735  0.80116523     0.10300
C796        C  0.67760297  0.77398651  0.79035934    -0.17000
C797        C  0.67325845  0.75848904  0.77827128    -0.27400
C798        C  0.64926238  0.74502966  0.77690066     0.18600
C799        C  0.61400220  0.76536281  0.81060401     0.12600
C800        C  0.66462668  0.79230548  0.81416027    -0.11800
H801        H  0.69594378  0.78429660  0.79140600     0.12900
C802        C  0.64216277  0.72918962  0.76396291    -0.22600
H803        H  0.61200973  0.73717449  0.78667476     0.08500
C804        C  0.59622122  0.78635067  0.81036204     0.04800
C805        C  0.57736830  0.78846526  0.82115241    -0.19900
C806        C  0.57539219  0.76968108  0.83195118    -0.12100
C807        C  0.59303071  0.74841650  0.83205751     0.13500
C808        C  0.61211506  0.74657438  0.82136803    -0.22600
C809        C  0.59677969  0.80616206  0.79853958    -0.05600
H810        H  0.56367094  0.80454676  0.82097968     0.15100
C811        C  0.59291665  0.72776145  0.84345302    -0.15800
H812        H  0.62581689  0.73048797  0.82150709     0.09400
H813        H  0.62373732  0.73678466  0.75936163     0.07200
H814        H  0.63916857  0.70855207  0.76709715     0.08400
H815        H  0.65706177  0.72985680  0.75545436     0.07500
H816        H  0.66373530  0.77983380  0.82379557     0.02400
H817        H  0.65016787  0.80826105  0.81520921     0.02900
H818        H  0.68433718  0.80120939  0.81362146     0.06400
H819        H  0.58129704  0.82110165  0.79985967     0.05300
H820        H  0.59367737  0.79625262  0.78817865    -0.00400
H821        H  0.61587008  0.81629207  0.79832622     0.01000
H822        H  0.58887360  0.70848016  0.83857053     0.04700
H823        H  0.57827032  0.73132190  0.85188363     0.06600
H824        H  0.61233027  0.72708579  0.84866052     0.07500
C825        C  0.63071046  0.76308669  0.70762890    -0.22100
C826        C  0.63703541  0.75180399  0.69449536     0.09900
C827        C  0.66232644  0.74171755  0.69230170     0.10300
C828        C  0.68071374  0.74301031  0.70337058    -0.17000
C829        C  0.67446616  0.75450716  0.71649687    -0.27400
C830        C  0.64904408  0.76448523  0.71869418     0.18600
C831        C  0.61675378  0.75062575  0.68324149     0.12600
C832        C  0.66986325  0.72970514  0.67827192    -0.11800
H833        H  0.70018187  0.73534027  0.70171880     0.12900
C834        C  0.64025201  0.77594993  0.73266443    -0.22600
H835        H  0.61119603  0.77062331  0.70930577     0.08500
C836        C  0.59898511  0.72969510  0.68242948     0.04800
C837        C  0.58002111  0.72949743  0.67164823    -0.19900
C838        C  0.57813813  0.74994427  0.66177670    -0.12100
C839        C  0.59615557  0.77084194  0.66253922     0.13500
C840        C  0.61514364  0.77092982  0.67331434    -0.22600
C841        C  0.59995186  0.70768972  0.69301024    -0.05600
H842        H  0.56624463  0.71351821  0.67107623     0.15100
C843        C  0.59661950  0.79289450  0.65195679    -0.15800
H844        H  0.62895281  0.78688455  0.67392031     0.09400
H845        H  0.62309407  0.76494883  0.73663983     0.07200
H846        H  0.63453130  0.79660417  0.73106987     0.08400
H847        H  0.65539279  0.77521959  0.74104315     0.07500
H848        H  0.66778207  0.74434767  0.66965574     0.02400
H849        H  0.65703186  0.71281852  0.67595401     0.02900
H850        H  0.69037433  0.72276187  0.67831757     0.06400
H851        H  0.58465039  0.69288459  0.69088341     0.05300
H852        H  0.59689521  0.71541210  0.70391678    -0.00400
H853        H  0.61922536  0.69790291  0.69247477     0.01000
H854        H  0.59285482  0.81158870  0.65753894     0.04700
H855        H  0.58208848  0.79068593  0.64334741     0.06600
H856        H  0.61613745  0.79384292  0.64686010     0.07500
C857        C  0.00332520  0.39735073  0.05189527    -0.22100
C858        C  0.98137179  0.41335176  0.05041187     0.09900
C859        C  0.95938998  0.40901920  0.05912500     0.10300
C860        C  0.95997626  0.38884342  0.06925009    -0.17000
C861        C  0.98213339  0.37301455  0.07094902    -0.27400
C862        C  0.00400855  0.37719270  0.06201715     0.18600
C863        C  0.98181341  0.43427805  0.03949499     0.12600
C864        C  0.93544145  0.42580590  0.05775941    -0.11800
H865        H  0.94311554  0.38553992  0.07597500     0.12900
C866        C  0.02765855  0.35981179  0.06260533    -0.22600
H867        H  0.01998551  0.40062361  0.04501571     0.08500
C868        C  0.99284327  0.45893320  0.04233984     0.04800
C869        C  0.99340395  0.47789128  0.03155917    -0.19900
C870        C  0.98344035  0.47263509  0.01796350    -0.12100
C871        C  0.97237275  0.44790553  0.01512144     0.13500
C872        C  0.97166665  0.42907032  0.02594950    -0.22600
C873        C  0.00399454  0.46517377  0.05675001    -0.05600
H874        H  0.00170880  0.49691625  0.03370982     0.15100
C875        C  0.96078076  0.44087029  0.00090118    -0.15800
H876        H  0.96318702  0.41011612  0.02380405     0.09400
H877        H  0.04193106  0.36469995  0.05412241     0.07200
H878        H  0.02173265  0.33917810  0.06114167     0.08400
H879        H  0.03775048  0.36210777  0.07293757     0.07500
H880        H  0.92732097  0.42408344  0.04685700     0.02400
H881        H  0.94064688  0.44643911  0.05981489     0.02900
H882        H  0.92004601  0.42002985  0.06545155     0.06400
H883        H  0.01179211  0.48534634  0.05720844     0.05300
H884        H  0.02015889  0.45152030  0.05921705    -0.00400
H885        H  0.98859200  0.46324746  0.06498395     0.01000
H886        H  0.97138988  0.42392796  0.99637837     0.04700
H887        H  0.96169467  0.45700498  0.99308729     0.06600
H888        H  0.93996597  0.43550154  0.00231955     0.07500
C889        C  0.99250009  0.59770902  0.96646072    -0.22100
C890        C  0.98523743  0.59025272  0.95267793     0.09900
C891        C  0.97886103  0.56403246  0.94988388     0.10300
C892        C  0.97930537  0.54590113  0.96104887    -0.17000
C893        C  0.98668243  0.55323949  0.97486256    -0.27400
C894        C  0.99351493  0.57949798  0.97759086     0.18600
C895        C  0.98445502  0.61027679  0.94133233     0.12600
C896        C  0.97156364  0.55524602  0.93513310    -0.11800
H897        H  0.97381886  0.52587064  0.95900973     0.12900
C898        C  0.00235533  0.58893252  0.99198110    -0.22600
H899        H  0.99758070  0.61786415  0.96851738     0.08500
C900        C  0.96218253  0.62590084  0.93915406     0.04800
C901        C  0.96257802  0.64508575  0.92850631    -0.19900
C902        C  0.98483312  0.64914045  0.92008972    -0.12100
C903        C  0.00685157  0.63286167  0.92199324     0.13500
C904        C  0.00640008  0.61367984  0.93265424    -0.22600
C905        C  0.93807015  0.62231414  0.94809392    -0.05600
H906        H  0.94561148  0.65734858  0.92692895     0.15100
C907        C  0.03043242  0.63488378  0.91248867    -0.15800
H908        H  0.02323780  0.60124205  0.93425884     0.09400
H909        H  0.98864864  0.60403162  0.99593869     0.07200
H910        H  0.02209784  0.59763757  0.99103647     0.08400
H911        H  0.00344218  0.57320197  0.00001167     0.07500
H912        H  0.98799896  0.55900948  0.92772128     0.02400
H913        H  0.95409556  0.56606950  0.93144216     0.02900
H914        H  0.96707655  0.53408310  0.93479947     0.06400
H915        H  0.92234146  0.63603248  0.94495842     0.05300
H916        H  0.94276815  0.62580094  0.95945986    -0.00400
H917        H  0.93059383  0.60214797  0.94683045     0.01000
H918        H  0.04018013  0.65394070  0.91398771     0.04700
H919        H  0.02445655  0.63270466  0.90120148     0.06600
H920        H  0.04497860  0.61945690  0.91488361     0.07500
C921        C  0.11222500  0.60821547  0.60989775    -0.22100
C922        C  0.12046404  0.63419274  0.60930527     0.09900
C923        C  0.14727501  0.63984124  0.60802503     0.10300
C924        C  0.16535131  0.61927084  0.60767853    -0.17000
C925        C  0.15722627  0.59317198  0.60864586    -0.27400
C926        C  0.13016849  0.58759232  0.60933229     0.18600
C927        C  0.10061845  0.65514126  0.61021902     0.12600
C928        C  0.15675741  0.66756468  0.60712020    -0.11800
H929        H  0.18599336  0.62362337  0.60703551     0.12900
C930        C  0.11927753  0.56032300  0.60890179    -0.22600
H931        H  0.09155217  0.60400102  0.61063705     0.08500
C932        C  0.08626315  0.66320092  0.59821713     0.04800
C933        C  0.06752134  0.68298688  0.59969563    -0.19900
C934        C  0.06270346  0.69483246  0.61292341    -0.12100
C935        C  0.07759142  0.68701206  0.62490364     0.13500
C936        C  0.09605223  0.66700272  0.62339882    -0.22600
C937        C  0.09075588  0.65090025  0.58387833    -0.05600
H938        H  0.05625301  0.68895620  0.59050825     0.15100
C939        C  0.07561933  0.69990781  0.63927706    -0.15800
H940        H  0.10735589  0.66088395  0.63255267     0.09400
H941        H  0.10479097  0.55884619  0.60016419     0.07200
H942        H  0.10940398  0.55590489  0.61913371     0.08400
H943        H  0.13422052  0.54526072  0.60681244     0.07500
H944        H  0.15113586  0.67832348  0.61689712     0.02400
H945        H  0.14792758  0.67727870  0.59773640     0.02900
H946        H  0.17829704  0.66857375  0.60602985     0.06400
H947        H  0.07802457  0.65958128  0.57558573     0.05300
H948        H  0.08652428  0.62971278  0.58442793    -0.00400
H949        H  0.11135894  0.65376448  0.58060579     0.01000
H950        H  0.06800390  0.68572948  0.64717210     0.04700
H951        H  0.06308948  0.71742845  0.63933179     0.06600
H952        H  0.09529159  0.70638684  0.64271020     0.07500
C953        C  0.36205939  0.48257054  0.54876258    -0.22100
C954        C  0.37884256  0.50409927  0.54828671     0.09900
C955        C  0.37488601  0.52519525  0.55766092     0.10300
C956        C  0.35407082  0.52432298  0.56733553    -0.17000
C957        C  0.33738393  0.50269668  0.56795579    -0.27400
C958        C  0.34130797  0.48159200  0.55850987     0.18600
C959        C  0.40009827  0.50459713  0.53764768     0.12600
C960        C  0.39280620  0.54847462  0.55751746    -0.11800
H961        H  0.35092944  0.54049301  0.57456085     0.12900
C962        C  0.32308665  0.45856996  0.55826585    -0.22600
H963        H  0.36512202  0.46660935  0.54139014     0.08500
C964        C  0.42383836  0.49135439  0.53993817     0.04800
C965        C  0.44375670  0.49334078  0.52975428    -0.19900
C966        C  0.44054265  0.50872195  0.51755454    -0.12100
C967        C  0.41662261  0.52154228  0.51514858     0.13500
C968        C  0.39661226  0.51929632  0.52523619    -0.22600
C969        C  0.42824417  0.47556039  0.55321451    -0.05600
H970        H  0.46203884  0.48317277  0.53138013     0.15100
C971        C  0.41217876  0.53740556  0.50190667    -0.15800
H972        H  0.37823744  0.52926115  0.52354064     0.09400
H973        H  0.32828193  0.44455960  0.54971247     0.07200
H974        H  0.30282383  0.46533382  0.55635838     0.08400
H975        H  0.32399407  0.44799869  0.56853314     0.07500
H976        H  0.39202735  0.55817688  0.54697721     0.02400
H977        H  0.41312788  0.54212293  0.55965784     0.02900
H978        H  0.38725542  0.56303065  0.56572198     0.06400
H979        H  0.44804733  0.46680821  0.55342132     0.05300
H980        H  0.41376115  0.45952809  0.55379217    -0.00400
H981        H  0.42612254  0.48823545  0.56271855     0.01000
H982        H  0.41481730  0.52495235  0.49235590     0.04700
H983        H  0.42626710  0.55372573  0.50152149     0.06600
H984        H  0.39221464  0.54576414  0.50159293     0.07500
C985        C  0.31226836  0.88067088  0.61383012    -0.22100
C986        C  0.33771598  0.88996332  0.61190414     0.09900
C987        C  0.34189071  0.91679519  0.60955420     0.10300
C988        C  0.32045711  0.93383585  0.60944831    -0.17000
C989        C  0.29494208  0.92460122  0.61144908    -0.27400
C990        C  0.29079355  0.89765141  0.61367063     0.18600
C991        C  0.35968922  0.87122401  0.61270342     0.12600
C992        C  0.36897302  0.92746945  0.60745381    -0.11800
H993        H  0.32361278  0.95451746  0.60784855     0.12900
C994        C  0.26400926  0.88682593  0.61656688    -0.22600
H995        H  0.30928491  0.86002999  0.61566950     0.08500
C996        C  0.36876371  0.86164156  0.62586813     0.04800
C997        C  0.38897299  0.84317119  0.62607348    -0.19900
C998        C  0.40045205  0.83418233  0.61341800    -0.12100
C999        C  0.39217725  0.84488416  0.60026176     0.13500
C1000       C  0.37152488  0.86283051  0.60008254    -0.22600
C1001       C  0.35718176  0.87100557  0.63968453    -0.05600
H1002       H  0.39546496  0.83528674  0.63616111     0.15100
C1003       C  0.40527773  0.83890803  0.58627507    -0.15800
H1004       H  0.36483347  0.87066199  0.59001348     0.09400
H1005       H  0.26466404  0.86565543  0.61899403     0.07200
H1006       H  0.25139145  0.88942624  0.60711207     0.08400
H1007       H  0.25521140  0.89693484  0.62584643     0.07500
H1008       H  0.37795377  0.91861339  0.59785767     0.02400
H1009       H  0.38114845  0.92290199  0.61688901     0.02900
H1010       H  0.36881504  0.94894560  0.60599536     0.06400
H1011       H  0.36685998  0.86191830  0.64901096     0.05300
H1012       H  0.33614213  0.86603860  0.64012499    -0.00400
H1013       H  0.35950070  0.89246162  0.64053829     0.01000
H1014       H  0.39141531  0.82858816  0.57917531     0.04700
H1015       H  0.42315147  0.82703360  0.58740930     0.06600
H1016       H  0.41126499  0.85742446  0.58110348     0.07500
C1017       C  0.08792740  0.03085078  0.55214558    -0.22100
C1018       C  0.07284824  0.00870517  0.54935559     0.09900
C1019       C  0.07717958  0.98568357  0.55720203     0.10300
C1020       C  0.09608998  0.98557400  0.56801110    -0.17000
C1021       C  0.11079968  0.00795356  0.57110392    -0.27400
C1022       C  0.10700554  0.03075586  0.56285757     0.18600
C1023       C  0.05286821  0.00994966  0.53799802     0.12600
C1024       C  0.06202212  0.96122691  0.55402799    -0.11800
H1025       H  0.09935876  0.96796152  0.57412177     0.12900
C1026       C  0.12377762  0.05461552  0.56476834    -0.22600
H1027       H  0.08479094  0.04825811  0.54584013     0.08500
C1028       C  0.02679146  0.01675333  0.54102470     0.04800
C1029       C  0.00839817  0.01700310  0.52997419    -0.19900
C1030       C  0.01556121  0.01070472  0.51597371    -0.12100
C1031       C  0.04183632  0.00443537  0.51291045     0.13500
C1032       C  0.06018614  0.00412056  0.52399185    -0.22600
C1033       C  0.01842575  0.02368301  0.55591175    -0.05600
H1034       H  0.98825097  0.02182146  0.53226408     0.15100
C1035       C  0.05040082  0.99723788  0.49807979    -0.15800
H1036       H  0.08029165  0.99901726  0.52177927     0.09400
H1037       H  0.11960569  0.06960799  0.55656021     0.07200
H1038       H  0.14468187  0.04922468  0.56386429     0.08400
H1039       H  0.12003682  0.06364908  0.57526873     0.07500
H1040       H  0.06560949  0.95513565  0.54286369     0.02400
H1041       H  0.04086796  0.96481829  0.55548836     0.02900
H1042       H  0.06777972  0.94492338  0.56112774     0.06400
H1043       H  0.99735492  0.02858801  0.55642159     0.05300
H1044       H  0.02966682  0.04082221  0.55969023    -0.00400
H1045       H  0.02201345  0.00701262  0.56316492     0.01000
H1046       H  0.04759680  0.01399519  0.49079442     0.04700
H1047       H  0.03886481  0.98039425  0.49418127     0.06600
H1048       H  0.07134510  0.99177733  0.49773489     0.07500
C1049       C  0.24021822  0.32831154  0.68719153    -0.22100
C1050       C  0.22657828  0.35173523  0.68910375     0.09900
C1051       C  0.21075456  0.35494313  0.70128219     0.10300
C1052       C  0.20946657  0.33489222  0.71144735    -0.17000
C1053       C  0.22383190  0.31180488  0.70979914    -0.27400
C1054       C  0.23895710  0.30822846  0.69732080     0.18600
C1055       C  0.22932454  0.37272509  0.67829382     0.12600
C1056       C  0.19592240  0.37986112  0.70378923    -0.11800
H1057       H  0.19788930  0.33762114  0.72098475     0.12900
C1058       C  0.25340847  0.28331377  0.69409846    -0.22600
H1059       H  0.25193169  0.32567036  0.67769088     0.08500
C1060       C  0.25236536  0.38764777  0.67715211     0.04800
C1061       C  0.25395190  0.40741219  0.66684425    -0.19900
C1062       C  0.23292655  0.41288938  0.65776850    -0.12100
C1063       C  0.20996381  0.39763546  0.65878343     0.13500
C1064       C  0.20847917  0.37784030  0.66907107    -0.22600
C1065       C  0.27501342  0.38319260  0.68705095    -0.05600
H1066       H  0.27153102  0.41904658  0.66605410     0.15100
C1067       C  0.18700864  0.40086793  0.64893445    -0.15800
H1068       H  0.19095812  0.36610295  0.66982868     0.09400
H1069       H  0.27466550  0.28729314  0.69359700     0.07200
H1070       H  0.24693553  0.27562421  0.68363774     0.08400
H1071       H  0.24989240  0.26775917  0.70203146     0.07500
H1072       H  0.18151538  0.38290518  0.69515194     0.02400
H1073       H  0.20968291  0.39655554  0.70403870     0.02900
H1074       H  0.18516237  0.37946226  0.71404295     0.06400
H1075       H  0.29118070  0.39708615  0.68498863     0.05300
H1076       H  0.28274039  0.36316631  0.68563857    -0.00400
H1077       H  0.26854307  0.38578365  0.69823662     0.01000
H1078       H  0.18278136  0.38198683  0.64364575     0.04700
H1079       H  0.19035146  0.41532368  0.64040434     0.06600
H1080       H  0.16962612  0.40689575  0.65516502     0.07500
C1081       C  0.23590283  0.15598641  0.70526250    -0.22100
C1082       C  0.22190073  0.16048094  0.69268128     0.09900
C1083       C  0.20998385  0.18493264  0.69047009     0.10300
C1084       C  0.21186272  0.20413474  0.70103905    -0.17000
C1085       C  0.22566938  0.19962585  0.71368283    -0.27400
C1086       C  0.23801097  0.17526380  0.71581097     0.18600
C1087       C  0.21916149  0.13904082  0.68218701     0.12600
C1088       C  0.19560103  0.19091461  0.67688686    -0.11800
H1089       H  0.20256804  0.22287170  0.69941420     0.12900
C1090       C  0.25258104  0.16843522  0.72922616    -0.22600
H1091       H  0.24481738  0.13709816  0.70698569     0.08500
C1092       C  0.24023403  0.13077256  0.67366400     0.04800
C1093       C  0.23646294  0.11046877  0.66386138    -0.19900
C1094       C  0.21213666  0.09812181  0.66239135    -0.12100
C1095       C  0.19118977  0.10604540  0.67125885     0.13500
C1096       C  0.19495180  0.12662634  0.68087233    -0.22600
C1097       C  0.26652230  0.14372391  0.67468668    -0.05600
H1098       H  0.25255107  0.10444894  0.65714295     0.15100
C1099       C  0.16502496  0.09266036  0.67152497    -0.15800
H1100       H  0.17896141  0.13271212  0.68765657     0.09400
H1101       H  0.27322760  0.16407398  0.72658126     0.07200
H1102       H  0.24367256  0.15089070  0.73414187     0.08400
H1103       H  0.25224951  0.18411812  0.73730724     0.07500
H1104       H  0.17861699  0.17771213  0.67572095     0.02400
H1105       H  0.20888940  0.18829226  0.66766674     0.02900
H1106       H  0.18824415  0.21126798  0.67671596     0.06400
H1107       H  0.28061920  0.13538812  0.66695216     0.05300
H1108       H  0.27469100  0.14102823  0.68551003    -0.00400
H1109       H  0.26454438  0.16487422  0.67245000     0.01000
H1110       H  0.16017920  0.08706308  0.68262736     0.04700
H1111       H  0.16443704  0.07450664  0.66521445     0.06600
H1112       H  0.14980596  0.10621746  0.66755919     0.07500
C1113       C  0.30656491  0.64426753  0.87554348    -0.22100
C1114       C  0.33296548  0.63744837  0.87634817     0.09900
C1115       C  0.34014164  0.61090030  0.87642878     0.10300
C1116       C  0.32065983  0.59171645  0.87564005    -0.17000
C1117       C  0.29416714  0.59847709  0.87491149    -0.27400
C1118       C  0.28704158  0.62513902  0.87474117     0.18600
C1119       C  0.35282389  0.65846117  0.87644133     0.12600
C1120       C  0.36835878  0.60287216  0.87711364    -0.11800
H1121       H  0.32611388  0.57130224  0.87568274     0.12900
C1122       C  0.25909589  0.63362387  0.87299918    -0.22600
H1123       H  0.30128162  0.66472737  0.87532878     0.08500
C1124       C  0.35972710  0.67169868  0.86382965     0.04800
C1125       C  0.37902118  0.69106061  0.86429734    -0.19900
C1126       C  0.39130070  0.69773558  0.87711198    -0.12100
C1127       C  0.38438761  0.68449154  0.88975525     0.13500
C1128       C  0.36515767  0.66499608  0.88926235    -0.22600
C1129       C  0.34700801  0.66510154  0.84984732    -0.05600
H1130       H  0.38450077  0.70115421  0.85461644     0.15100
C1131       C  0.39795817  0.69008670  0.90362932    -0.15800
H1132       H  0.35983407  0.65462754  0.89888090     0.09400
H1133       H  0.25742114  0.65512128  0.87196910     0.07200
H1134       H  0.24744994  0.62776440  0.88239143     0.08400
H1135       H  0.25073024  0.62471355  0.86325534     0.07500
H1136       H  0.37722369  0.61008587  0.88713373     0.02400
H1137       H  0.37909858  0.61118323  0.86791438     0.02900
H1138       H  0.37060644  0.58135255  0.87682911     0.06400
H1139       H  0.35504716  0.67694814  0.84098551     0.05300
H1140       H  0.32574036  0.66891097  0.85047465    -0.00400
H1141       H  0.35029029  0.64422191  0.84732205     0.01000
H1142       H  0.39413397  0.71044704  0.90697500     0.04700
H1143       H  0.41928270  0.68711631  0.90237978     0.06600
H1144       H  0.39102300  0.67704064  0.91226488     0.07500
C1145       C  0.09629075  0.48460351  0.93885952    -0.22100
C1146       C  0.08190391  0.50753848  0.94091502     0.09900
C1147       C  0.08669819  0.52927004  0.93207841     0.10300
C1148       C  0.10585577  0.52752741  0.92141781    -0.17000
C1149       C  0.12009335  0.50447131  0.91921922    -0.27400
C1150       C  0.11523693  0.48271017  0.92809389     0.18600
C1151       C  0.06209305  0.50834920  0.95247069     0.12600
C1152       C  0.07136141  0.55414948  0.93374902    -0.11800
H1153       H  0.10965922  0.54424790  0.91468160     0.12900
C1154       C  0.13065146  0.45783751  0.92673202    -0.22600
H1155       H  0.09273339  0.46812185  0.94580617     0.08500
C1156       C  0.03847702  0.49429568  0.95149398     0.04800
C1157       C  0.02055182  0.49537302  0.96277942    -0.19900
C1158       C  0.02539281  0.51063353  0.97486420    -0.12100
C1159       C  0.04902691  0.52470612  0.97585938     0.13500
C1160       C  0.06715501  0.52323285  0.96468514    -0.22600
C1161       C  0.03184646  0.47874683  0.93839819    -0.05600
H1162       H  0.00235308  0.48471437  0.96205790     0.15100
C1163       C  0.05579148  0.54132347  0.98854128    -0.15800
H1164       H  0.08537682  0.53380871  0.96549297     0.09400
H1165       H  0.12555539  0.44367459  0.93522310     0.07200
H1166       H  0.15181935  0.46208324  0.92756530     0.08400
H1167       H  0.12645544  0.44835358  0.91640045     0.07500
H1168       H  0.07488544  0.56270249  0.94441255     0.02400
H1169       H  0.05022303  0.55006494  0.93250964     0.02900
H1170       H  0.07699911  0.56890401  0.92567023     0.06400
H1171       H  0.01220385  0.46975602  0.93919903     0.05300
H1172       H  0.04623836  0.46285229  0.93688451    -0.00400
H1173       H  0.03204310  0.49168455  0.92893344     0.01000
H1174       H  0.07427476  0.53427096  0.99332373     0.04700
H1175       H  0.04062069  0.54091005  0.99693356     0.06600
H1176       H  0.05843697  0.56183567  0.98507830     0.07500
C1177       C  0.20882623  0.33520913  0.79557069    -0.22100
C1178       C  0.22045262  0.35928788  0.79254010     0.09900
C1179       C  0.23326755  0.36290051  0.77937938     0.10300
C1180       C  0.23426680  0.34221365  0.76958894    -0.17000
C1181       C  0.22247345  0.31816758  0.77260095    -0.27400
C1182       C  0.20965182  0.31457568  0.78580545     0.18600
C1183       C  0.21988468  0.37988853  0.80363824     0.12600
C1184       C  0.24538476  0.38869282  0.77554780    -0.11800
H1185       H  0.24393068  0.34493008  0.75943601     0.12900
C1186       C  0.19748650  0.28907032  0.79025467    -0.22600
H1187       H  0.19940246  0.33234162  0.80578208     0.08500
C1188       C  0.19659737  0.39282817  0.80741353     0.04800
C1189       C  0.19687650  0.41098622  0.81860155    -0.19900
C1190       C  0.21989968  0.41663897  0.82609047    -0.12100
C1191       C  0.24318365  0.40335559  0.82237345     0.13500
C1192       C  0.24285962  0.38539829  0.81110804    -0.22600
C1193       C  0.17158691  0.38789788  0.79945923    -0.05600
H1194       H  0.17906098  0.42114400  0.82138319     0.15100
C1195       C  0.26843352  0.40641671  0.83039851    -0.15800
H1196       H  0.26057292  0.37497887  0.80839168     0.09400
H1197       H  0.17622015  0.29183059  0.79187846     0.07200
H1198       H  0.20631951  0.28253121  0.80042660     0.08400
H1199       H  0.20039041  0.27316897  0.78246088     0.07500
H1200       H  0.26124449  0.39347180  0.78312527     0.02400
H1201       H  0.23032938  0.40422602  0.77594052     0.02900
H1202       H  0.25386051  0.38840825  0.76467228     0.06400
H1203       H  0.15542334  0.40027807  0.80348674     0.05300
H1204       H  0.16561877  0.36724415  0.80066890    -0.00400
H1205       H  0.17442560  0.39230206  0.78799912     0.01000
H1206       H  0.27541640  0.38696386  0.83390142     0.04700
H1207       H  0.26660328  0.41847681  0.84009189     0.06600
H1208       H  0.28335584  0.41521504  0.82331387     0.07500
C1209       C  0.09993586  0.86164320  0.88596458    -0.22100
C1210       C  0.11232970  0.86536475  0.87283176     0.09900
C1211       C  0.10421322  0.85082874  0.86090405     0.10300
C1212       C  0.08395359  0.83265938  0.86241285    -0.17000
C1213       C  0.07175926  0.82851235  0.87560398    -0.27400
C1214       C  0.07967182  0.84342761  0.88751629     0.18600
C1215       C  0.13386160  0.88453939  0.87183347     0.12600
C1216       C  0.11677662  0.85470007  0.84657386    -0.11800
H1217       H  0.07773218  0.82143404  0.85325500     0.12900
C1218       C  0.06620760  0.84108404  0.90170745    -0.22600
H1219       H  0.10616154  0.87312678  0.89502873     0.08500
C1220       C  0.12893243  0.91145596  0.87046622     0.04800
C1221       C  0.14998869  0.92886225  0.86971572    -0.19900
C1222       C  0.17586187  0.92000271  0.87043019    -0.12100
C1223       C  0.18076576  0.89292931  0.87154585     0.13500
C1224       C  0.15964353  0.87554579  0.87226252    -0.22600
C1225       C  0.10147120  0.92174780  0.86970723    -0.05600
H1226       H  0.14622560  0.94958070  0.86877675     0.15100
C1227       C  0.20808748  0.88213947  0.87142655    -0.15800
H1228       H  0.16320074  0.85477647  0.87315227     0.09400
H1229       H  0.07367327  0.85560385  0.90946488     0.07200
H1230       H  0.06958911  0.82149819  0.90629418     0.08400
H1231       H  0.04495649  0.84443321  0.90040728     0.07500
H1232       H  0.13785903  0.84997042  0.84720251     0.02400
H1233       H  0.11442682  0.87528078  0.84316888     0.02900
H1234       H  0.10787463  0.84200841  0.83833099     0.06400
H1235       H  0.10107655  0.94327042  0.86847617     0.05300
H1236       H  0.09079134  0.91671158  0.87960336    -0.00400
H1237       H  0.09126125  0.91299804  0.86045819     0.01000
H1238       H  0.21879968  0.88853962  0.88103490     0.04700
H1239       H  0.21851579  0.88889941  0.86175463     0.06600
H1240       H  0.20813740  0.86049236  0.87137338     0.07500
C1241       C  0.21035323  0.17299235  0.79255003    -0.22100
C1242       C  0.23477914  0.16975145  0.79897508     0.09900
C1243       C  0.25583548  0.18534604  0.79451155     0.10300
C1244       C  0.25216779  0.20345532  0.78349533    -0.17000
C1245       C  0.22788319  0.20647852  0.77665133    -0.27400
C1246       C  0.20651624  0.19116686  0.78149938     0.18600
C1247       C  0.23836556  0.14876972  0.80971235     0.12600
C1248       C  0.28232572  0.18262285  0.80127173    -0.11800
H1249       H  0.26862724  0.21516056  0.78014216     0.12900
C1250       C  0.17973194  0.19324399  0.77502430    -0.22600
H1251       H  0.19429687  0.16087763  0.79607466     0.08500
C1252       C  0.23429781  0.15303708  0.82438166     0.04800
C1253       C  0.23836862  0.13245819  0.83403990    -0.19900
C1254       C  0.24624064  0.10767826  0.82933372    -0.12100
C1255       C  0.25092036  0.10368962  0.81463467     0.13500
C1256       C  0.24663434  0.12420035  0.80503592    -0.22600
C1257       C  0.22550089  0.17922053  0.82978549    -0.05600
H1258       H  0.23488531  0.13556212  0.84528917     0.15100
C1259       C  0.26139208  0.07848172  0.80869263    -0.15800
H1260       H  0.25018132  0.12112386  0.79378373     0.09400
H1261       H  0.17192755  0.21321276  0.77660569     0.07200
H1262       H  0.16575399  0.17946128  0.78001079     0.08400
H1263       H  0.18065565  0.18859385  0.76350127     0.07500
H1264       H  0.28973455  0.16250057  0.79970908     0.02400
H1265       H  0.28096373  0.18674131  0.81283756     0.02900
H1266       H  0.29669251  0.19634471  0.79657820     0.06400
H1267       H  0.22316996  0.17928243  0.84153235     0.05300
H1268       H  0.20644450  0.18435263  0.82494641    -0.00400
H1269       H  0.24006123  0.19432945  0.82691995     0.01000
H1270       H  0.24688943  0.06986885  0.80130138     0.04700
H1271       H  0.26613469  0.06392466  0.81697725     0.06600
H1272       H  0.27967231  0.08241973  0.80272902     0.07500
C1273       C  0.47676793  0.92461607  0.96732198    -0.22100
C1274       C  0.48116200  0.93361209  0.95344301     0.09900
C1275       C  0.48586945  0.96033755  0.95114143     0.10300
C1276       C  0.48598183  0.97748917  0.96277574    -0.17000
C1277       C  0.48044204  0.96882260  0.97663681    -0.27400
C1278       C  0.47618755  0.94184407  0.97895819     0.18600
C1279       C  0.48031993  0.91478427  0.94143795     0.12600
C1280       C  0.49056966  0.97075964  0.93638845    -0.11800
H1281       H  0.49003920  0.99794829  0.96101791     0.12900
C1282       C  0.47037231  0.93049875  0.99340327    -0.22600
H1283       H  0.47324945  0.90401874  0.96904894     0.08500
C1284       C  0.50233665  0.89993466  0.93754580     0.04800
C1285       C  0.50045993  0.88211603  0.92623219    -0.19900
C1286       C  0.47702434  0.87870815  0.91871533    -0.12100
C1287       C  0.45517375  0.89427995  0.92236940     0.13500
C1288       C  0.45710364  0.91199484  0.93374230    -0.22600
C1289       C  0.52781344  0.90301587  0.94531058    -0.05600
H1290       H  0.51730258  0.87046434  0.92338771     0.15100
C1291       C  0.43015404  0.89326478  0.91399255    -0.15800
H1292       H  0.44042964  0.92383598  0.93665468     0.09400
H1293       H  0.48593624  0.91646126  0.99633580     0.07200
H1294       H  0.45145750  0.91999283  0.99305373     0.08400
H1295       H  0.46898963  0.94536456  0.00189816     0.07500
H1296       H  0.47331072  0.96683490  0.92960056     0.02400
H1297       H  0.50793241  0.96116325  0.93166292     0.02900
H1298       H  0.49399690  0.99212937  0.93645996     0.06400
H1299       H  0.54317263  0.89009942  0.94086871     0.05300
H1300       H  0.52517115  0.89805334  0.95671201    -0.00400
H1301       H  0.53466406  0.92347065  0.94441814     0.01000
H1302       H  0.42046860  0.87417359  0.91542035     0.04700
H1303       H  0.43428412  0.89658588  0.90254070     0.06600
H1304       H  0.41615820  0.90845211  0.91754280     0.07500
C1305       C  0.45810447  0.12764108  0.05248262    -0.22100
C1306       C  0.47792209  0.10883927  0.05241738     0.09900
C1307       C  0.49793200  0.11017462  0.06269271     0.10300
C1308       C  0.49743715  0.13017585  0.07294285    -0.17000
C1309       C  0.47733870  0.14879887  0.07317016    -0.27400
C1310       C  0.45765918  0.14775052  0.06262514     0.18600
C1311       C  0.47732859  0.08806337  0.04139981     0.12600
C1312       C  0.51969551  0.09044654  0.06283308    -0.11800
H1313       H  0.51266714  0.13115348  0.08091139     0.12900
C1314       C  0.43647525  0.16797609  0.06135860    -0.22600
H1315       H  0.44298860  0.12676985  0.04443981     0.08500
C1316       C  0.46315500  0.06479769  0.04346956     0.04800
C1317       C  0.46260979  0.04595853  0.03262321    -0.19900
C1318       C  0.47646835  0.04954749  0.01990042    -0.12100
C1319       C  0.49046588  0.07299191  0.01776950     0.13500
C1320       C  0.49065342  0.09198585  0.02854502    -0.22600
C1321       C  0.44886605  0.05976595  0.05719047    -0.05600
H1322       H  0.45171379  0.02809329  0.03416739     0.15100
C1323       C  0.50536472  0.07860088  0.00429355    -0.15800
H1324       H  0.50134893  0.10996492  0.02693308     0.09400
H1325       H  0.41715698  0.15855929  0.06273761     0.07200
H1326       H  0.43733464  0.17700981  0.05063400     0.08400
H1327       H  0.43821820  0.18389115  0.06924670     0.07500
H1328       H  0.53051863  0.09121480  0.05261024     0.02400
H1329       H  0.51158580  0.07056660  0.06428010     0.02900
H1330       H  0.53372988  0.09419088  0.07158991     0.06400
H1331       H  0.43891035  0.04054918  0.05711002     0.05300
H1332       H  0.43392328  0.07509411  0.05891137    -0.00400
H1333       H  0.46284313  0.05995610  0.06619866     0.01000
H1334       H  0.49757875  0.09659025  0.99929461     0.04700
H1335       H  0.50401771  0.06266461  0.99637398     0.06600
H1336       H  0.52626951  0.08161865  0.00685854     0.07500
C1337       C  0.36546147  0.03123079  0.94225243    -0.22100
C1338       C  0.38278426  0.01014844  0.94255820     0.09900
C1339       C  0.38088366  0.99043678  0.93215272     0.10300
C1340       C  0.36153506  0.99232071  0.92161920    -0.17000
C1341       C  0.34441442  0.01370059  0.92114217    -0.27400
C1342       C  0.34634084  0.03334137  0.93165175     0.18600
C1343       C  0.40277311  0.00937031  0.95391201     0.12600
C1344       C  0.39945285  0.96768352  0.93209411    -0.11800
H1345       H  0.35990668  0.97717540  0.91362699     0.12900
C1346       C  0.32770795  0.05602535  0.93212119    -0.22600
H1347       H  0.36697971  0.04613633  0.95038639     0.08500
C1348       C  0.42534290  0.02503975  0.95318383     0.04800
C1349       C  0.44309329  0.02478584  0.96452849    -0.19900
C1350       C  0.43897944  0.00884503  0.97642662    -0.12100
C1351       C  0.41625837  0.99338553  0.97722818     0.13500
C1352       C  0.39841134  0.99375387  0.96591265    -0.22600
C1353       C  0.43079540  0.04175882  0.94036108    -0.05600
H1354       H  0.46048570  0.03675233  0.96404443     0.15100
C1355       C  0.41057407  0.97703948  0.99015102    -0.15800
H1356       H  0.38082938  0.98207510  0.96647394     0.09400
H1357       H  0.33041873  0.06851383  0.92262522     0.07200
H1358       H  0.33097093  0.06843307  0.94163666     0.08400
H1359       H  0.30732024  0.04879407  0.93251010     0.07500
H1360       H  0.39748507  0.95650386  0.94214302     0.02400
H1361       H  0.41980565  0.97483632  0.93110037     0.02900
H1362       H  0.39554145  0.95423229  0.92309067     0.06400
H1363       H  0.44956486  0.05237584  0.94139315     0.05300
H1364       H  0.41503933  0.05637299  0.93902251    -0.00400
H1365       H  0.43184331  0.02933433  0.93070607     0.01000
H1366       H  0.40957055  0.98968425  0.99971931     0.04700
H1367       H  0.42617553  0.96241168  0.99162783     0.06600
H1368       H  0.39175270  0.96650299  0.98915224     0.07500
C1369       C  0.82191824  0.12422389  0.10273465    -0.22100
C1370       C  0.83095887  0.13412355  0.11570848     0.09900
C1371       C  0.82125173  0.12384726  0.12857585     0.10300
C1372       C  0.80249809  0.10392114  0.12816238    -0.17000
C1373       C  0.79311466  0.09416089  0.11517304    -0.27400
C1374       C  0.80336108  0.10413083  0.10227183     0.18600
C1375       C  0.85060725  0.15529605  0.11555341     0.12600
C1376       C  0.83059265  0.13404086  0.14270936    -0.11800
H1377       H  0.79484514  0.09613655  0.13803746     0.12900
C1378       C  0.79622255  0.09341644  0.08786022    -0.22600
H1379       H  0.82974074  0.13196510  0.09288521     0.08500
C1380       C  0.87755457  0.14989176  0.11540839     0.04800
C1381       C  0.89538827  0.17063721  0.11537680    -0.19900
C1382       C  0.88693014  0.19669659  0.11533009    -0.12100
C1383       C  0.85983757  0.20203870  0.11553762     0.13500
C1384       C  0.84203094  0.18121270  0.11560634    -0.22600
C1385       C  0.88744514  0.12224942  0.11529611    -0.05600
H1386       H  0.91611140  0.16648216  0.11530378     0.15100
C1387       C  0.84950923  0.22947714  0.11635072    -0.15800
H1388       H  0.82125898  0.18511067  0.11582333     0.09400
H1389       H  0.81420666  0.08709437  0.08224970     0.07200
H1390       H  0.78656451  0.10883865  0.08147886     0.08400
H1391       H  0.78317922  0.07628647  0.08836370     0.07500
H1392       H  0.82618679  0.15516279  0.14356191     0.02400
H1393       H  0.85195155  0.13110718  0.14368920     0.02900
H1394       H  0.82098563  0.12391167  0.15174061     0.06400
H1395       H  0.90908596  0.12146179  0.11520541     0.05300
H1396       H  0.88020359  0.11203279  0.10566999    -0.00400
H1397       H  0.88047160  0.11180027  0.12490530     0.01000
H1398       H  0.85429124  0.24021378  0.10647161     0.04700
H1399       H  0.85809110  0.23965711  0.12565737     0.06600
H1400       H  0.82796610  0.22982159  0.11755729     0.07500
C1401       C  0.57269807  0.02894833  0.06474702    -0.22100
C1402       C  0.56841948  0.00590693  0.05712858     0.09900
C1403       C  0.58258292  0.98328111  0.06068420     0.10300
C1404       C  0.60137059  0.98444815  0.07153814    -0.17000
C1405       C  0.60640553  0.00776157  0.07891666    -0.27400
C1406       C  0.59113791  0.03009815  0.07576786     0.18600
C1407       C  0.54959703  0.00615517  0.04516658     0.12600
C1408       C  0.57822298  0.95808666  0.05281028    -0.11800
H1409       H  0.61280421  0.96724151  0.07393854     0.12900
C1410       C  0.59290468  0.05517915  0.08405036    -0.22600
H1411       H  0.56139492  0.04614877  0.06212943     0.08500
C1412       C  0.52300557  0.00023265  0.04718787     0.04800
C1413       C  0.50618099  0.00022433  0.03542045    -0.19900
C1414       C  0.51506691  0.00719230  0.02180997    -0.12100
C1415       C  0.54161787  0.01375594  0.01987459     0.13500
C1416       C  0.55860584  0.01279527  0.03156166    -0.22600
C1417       C  0.51235836  0.99434653  0.06176718    -0.05600
H1418       H  0.48586305  0.99506494  0.03686458     0.15100
C1419       C  0.55258074  0.02238273  0.00576598    -0.15800
H1420       H  0.57901821  0.01763677  0.03009829     0.09400
H1421       H  0.57319825  0.06066864  0.08793822     0.07200
H1422       H  0.60029609  0.07093136  0.07703156     0.08400
H1423       H  0.60555970  0.05373384  0.09353818     0.07500
H1424       H  0.58251958  0.96084711  0.04133399     0.02400
H1425       H  0.55764933  0.95178879  0.05405041     0.02900
H1426       H  0.59096170  0.94225866  0.05688123     0.06400
H1427       H  0.49107508  0.99037597  0.06147405     0.05300
H1428       H  0.51566923  0.01129965  0.06888032    -0.00400
H1429       H  0.52227616  0.97699785  0.06626667     0.01000
H1430       H  0.56122431  0.04210813  0.00690611     0.04700
H1431       H  0.53772700  0.02339010  0.99724166     0.06600
H1432       H  0.56804918  0.00859855  0.00234917     0.07500
C1433       C  0.63405567  0.39529289  0.10168036    -0.22100
C1434       C  0.62762882  0.38448480  0.11490726     0.09900
C1435       C  0.63978090  0.39391851  0.12731132     0.10300
C1436       C  0.65839489  0.41381365  0.12619657    -0.17000
C1437       C  0.66502121  0.42477507  0.11297173    -0.27400
C1438       C  0.65219230  0.41571123  0.10054574     0.18600
C1439       C  0.60769807  0.36364486  0.11563071     0.12600
C1440       C  0.63292070  0.38310763  0.14173504    -0.11800
H1441       H  0.66799186  0.42072579  0.13574292     0.12900
C1442       C  0.65580526  0.42781179  0.08606822    -0.22600
H1443       H  0.62427398  0.38822245  0.09221448     0.08500
C1444       C  0.58084471  0.36951926  0.11606653     0.04800
C1445       C  0.56271608  0.34915093  0.11729205    -0.19900
C1446       C  0.57084348  0.32304683  0.11787369    -0.12100
C1447       C  0.59781337  0.31722772  0.11756437     0.13500
C1448       C  0.61591038  0.33765693  0.11642342    -0.22600
C1449       C  0.57140128  0.39727682  0.11532908    -0.05600
H1450       H  0.54205794  0.35358793  0.11761921     0.15100
C1451       C  0.60769603  0.28971357  0.11906128    -0.15800
H1452       H  0.63661731  0.33341418  0.11628424     0.09400
H1453       H  0.63648523  0.43339998  0.08169742     0.07200
H1454       H  0.66498980  0.41346086  0.07878328     0.08400
H1455       H  0.66769840  0.44575857  0.08622683     0.07500
H1456       H  0.63745102  0.36197023  0.14210182     0.02400
H1457       H  0.61181124  0.38599822  0.14383179     0.02900
H1458       H  0.64402313  0.39287097  0.15035994     0.06400
H1459       H  0.54980745  0.39847637  0.11593197     0.05300
H1460       H  0.57770324  0.40622941  0.10514324    -0.00400
H1461       H  0.57963127  0.40862964  0.12431960     0.01000
H1462       H  0.60158570  0.27784167  0.10980591     0.04700
H1463       H  0.59993991  0.28093528  0.12899422     0.06600
H1464       H  0.62932048  0.28902134  0.11956738     0.07500
C1465       C  0.85819294  0.52472313  0.04462727    -0.22100
C1466       C  0.88346728  0.51877772  0.04929708     0.09900
C1467       C  0.88785882  0.51383157  0.06388093     0.10300
C1468       C  0.86678241  0.51475364  0.07342243    -0.17000
C1469       C  0.84139938  0.52003568  0.06868340    -0.27400
C1470       C  0.83705170  0.52526625  0.05410420     0.18600
C1471       C  0.90484750  0.51735000  0.03865266     0.12600
C1472       C  0.91456883  0.50679079  0.06930829    -0.11800
H1473       H  0.86999859  0.51070167  0.08460430     0.12900
C1474       C  0.81056857  0.53192779  0.04819583    -0.22600
H1475       H  0.85491515  0.52882856  0.03345321     0.08500
C1476       C  0.90608248  0.49695346  0.02858974     0.04800
C1477       C  0.92612089  0.49687121  0.01843209    -0.19900
C1478       C  0.94560394  0.51606087  0.01842007    -0.12100
C1479       C  0.94479351  0.53608522  0.02876939     0.13500
C1480       C  0.92412131  0.53674347  0.03856704    -0.22600
C1481       C  0.88665612  0.47493303  0.02875251    -0.05600
H1482       H  0.92663588  0.48168850  0.01044603     0.15100
C1483       C  0.96565338  0.55663423  0.03004044    -0.15800
H1484       H  0.92320849  0.55234430  0.04633157     0.09400
H1485       H  0.80485539  0.51710816  0.04017623     0.07200
H1486       H  0.81138974  0.55130898  0.04296403     0.08400
H1487       H  0.79516197  0.53278033  0.05644163     0.07500
H1488       H  0.92827940  0.52317554  0.06751980     0.02400
H1489       H  0.92181402  0.48927124  0.06363603     0.02900
H1490       H  0.91433331  0.50244837  0.08088136     0.06400
H1491       H  0.89113985  0.46010283  0.02049665     0.05300
H1492       H  0.86675369  0.48247273  0.02668550    -0.00400
H1493       H  0.88706182  0.46514386  0.03928383     0.01000
H1494       H  0.95698345  0.57616165  0.02818726     0.04700
H1495       H  0.98192669  0.55385839  0.02244625     0.06600
H1496       H  0.97407265  0.55607444  0.04091472     0.07500
C1497       C  0.82769899  0.39647312  0.38937778    -0.22100
C1498       C  0.83338441  0.38637903  0.37590037     0.09900
C1499       C  0.82205785  0.39768537  0.36371772     0.10300
C1500       C  0.80527460  0.41908533  0.36532190    -0.17000
C1501       C  0.79937482  0.42916931  0.37884206    -0.27400
C1502       C  0.81090662  0.41780551  0.39103887     0.18600
C1503       C  0.85200486  0.36447277  0.37488827     0.12600
C1504       C  0.82794819  0.38737120  0.34906477    -0.11800
H1505       H  0.79652794  0.42785468  0.35598672     0.12900
C1506       C  0.80669818  0.42866816  0.40576329    -0.22600
H1507       H  0.83673543  0.38771090  0.39863951     0.08500
C1508       C  0.87904227  0.36861187  0.37632082     0.04800
C1509       C  0.89595835  0.34719347  0.37596590    -0.19900
C1510       C  0.88647290  0.32173050  0.37424210    -0.12100
C1511       C  0.85937205  0.31766633  0.37249373     0.13500
C1512       C  0.84243358  0.33916344  0.37291475    -0.22600
C1513       C  0.89003521  0.39565916  0.37804296    -0.05600
H1514       H  0.91675447  0.35032503  0.37712379     0.15100
C1515       C  0.84829248  0.29100680  0.36959763    -0.15800
H1516       H  0.82160923  0.33627373  0.37172122     0.09400
H1517       H  0.81931343  0.41888438  0.41373945     0.07200
H1518       H  0.78626645  0.42561262  0.40916975     0.08400
H1519       H  0.81141931  0.44977777  0.40591201     0.07500
H1520       H  0.82152519  0.36677468  0.34824203     0.02400
H1521       H  0.84923551  0.38849443  0.34700520     0.02900
H1522       H  0.81775510  0.39871584  0.34068467     0.06400
H1523       H  0.91165238  0.39545056  0.37871099     0.05300
H1524       H  0.88240369  0.40467726  0.38793373    -0.00400
H1525       H  0.88437476  0.40784171  0.36878699     0.01000
H1526       H  0.85125150  0.27816789  0.37892645     0.04700
H1527       H  0.85792430  0.28238220  0.36012000     0.06600
H1528       H  0.82700632  0.29181976  0.36747561     0.07500
C1529       C  0.60437966  0.53848928  0.44762124    -0.22100
C1530       C  0.58706333  0.51747414  0.44667019     0.09900
C1531       C  0.59099720  0.49806318  0.43628214     0.10300
C1532       C  0.61231000  0.50015665  0.42699209    -0.17000
C1533       C  0.62953083  0.52137237  0.42779676    -0.27400
C1534       C  0.62576170  0.54060096  0.43839563     0.18600
C1535       C  0.56518318  0.51599107  0.45686274     0.12600
C1536       C  0.57260051  0.47531664  0.43498111    -0.11800
H1537       H  0.61531949  0.48540072  0.41890114     0.12900
C1538       C  0.64431903  0.56298254  0.44069305    -0.22600
H1539       H  0.60139412  0.55313904  0.45577685     0.08500
C1540       C  0.56819789  0.50398454  0.47025136     0.04800
C1541       C  0.54699273  0.50326093  0.47964833    -0.19900
C1542       C  0.52302194  0.51447121  0.47597131    -0.12100
C1543       C  0.52007637  0.52677892  0.46261215     0.13500
C1544       C  0.54123269  0.52721916  0.45316103    -0.22600
C1545       C  0.59380390  0.49207051  0.47461355    -0.05600
H1546       H  0.54909851  0.49400002  0.48994651     0.15100
C1547       C  0.49511799  0.53983199  0.45807397    -0.15800
H1548       H  0.53912698  0.53656567  0.44288178     0.09400
H1549       H  0.65160307  0.56252109  0.45181232     0.07200
H1550       H  0.63394785  0.58168313  0.43890650     0.08400
H1551       H  0.66157419  0.56234378  0.43362729     0.07500
H1552       H  0.55263909  0.48251181  0.43266046     0.02400
H1553       H  0.57227956  0.46411680  0.44507928     0.02900
H1554       H  0.57847901  0.46187207  0.42629201     0.06400
H1555       H  0.59277948  0.48347424  0.48544137     0.05300
H1556       H  0.60923837  0.50723245  0.47462111    -0.00400
H1557       H  0.59927085  0.47639432  0.46704415     0.01000
H1558       H  0.49894671  0.56071926  0.45581805     0.04700
H1559       H  0.47963122  0.53879556  0.46628355     0.06600
H1560       H  0.48770665  0.53040034  0.44824398     0.07500
C1561       C  0.75042875  0.85711418  0.20461613    -0.22100
C1562       C  0.73935976  0.85007358  0.19153323     0.09900
C1563       C  0.73018815  0.82445622  0.18947373     0.10300
C1564       C  0.73088108  0.80681822  0.20084243    -0.17000
C1565       C  0.74113939  0.81401168  0.21409707    -0.27400
C1566       C  0.75147300  0.83935967  0.21598007     0.18600
C1567       C  0.73588180  0.87019186  0.18041737     0.12600
C1568       C  0.71962937  0.81578794  0.17528715    -0.11800
H1569       H  0.72324501  0.78729498  0.19941628     0.12900
C1570       C  0.76257706  0.84876093  0.22991162    -0.22600
H1571       H  0.75753337  0.87682000  0.20610274     0.08500
C1572       C  0.71213223  0.88383321  0.17909085     0.04800
C1573       C  0.70913101  0.90200627  0.16807822    -0.19900
C1574       C  0.72941753  0.90708668  0.15843630    -0.12100
C1575       C  0.75315888  0.89308174  0.15968676     0.13500
C1576       C  0.75615399  0.87502930  0.17079504    -0.22600
C1577       C  0.69010815  0.87949371  0.18944865    -0.05600
H1578       H  0.69103231  0.91278756  0.16720356     0.15100
C1579       C  0.77530784  0.89568695  0.14923275    -0.15800
H1580       H  0.77421520  0.86419534  0.17176669     0.09400
H1581       H  0.75148339  0.86607529  0.23360040     0.07200
H1582       H  0.78329256  0.85438776  0.22838009     0.08400
H1583       H  0.76166790  0.83396398  0.23846620     0.07500
H1584       H  0.73494131  0.81800769  0.16702164     0.02400
H1585       H  0.70248138  0.82775767  0.17229879     0.02900
H1586       H  0.71347535  0.79504314  0.17548426     0.06400
H1587       H  0.67299922  0.89194926  0.18696604     0.05300
H1588       H  0.69673130  0.88421932  0.20038873    -0.00400
H1589       H  0.68368220  0.85886647  0.18910307     0.01000
H1590       H  0.79266087  0.90382183  0.15471168     0.04700
H1591       H  0.77054339  0.90817141  0.14000297     0.06600
H1592       H  0.78033787  0.87616431  0.14493107     0.07500
C1593       C  0.76263244  0.67167102  0.19997682    -0.22100
C1594       C  0.73927874  0.66041951  0.19539370     0.09900
C1595       C  0.71543608  0.66939454  0.20098826     0.10300
C1596       C  0.71551958  0.68943427  0.21116894    -0.17000
C1597       C  0.73893259  0.70095787  0.21587721    -0.27400
C1598       C  0.76290187  0.69194207  0.21000264     0.18600
C1599       C  0.74048123  0.63941035  0.18458505     0.12600
C1600       C  0.68990331  0.65811497  0.19602727    -0.11800
H1601       H  0.69707132  0.69609140  0.21544686     0.12900
C1602       C  0.78896381  0.70354973  0.21389160    -0.22600
H1603       H  0.78082160  0.66457845  0.19554981     0.08500
C1604       C  0.74627172  0.64488077  0.17022837     0.04800
C1605       C  0.74862508  0.62425881  0.16051607    -0.19900
C1606       C  0.74544359  0.59822383  0.16479870    -0.12100
C1607       C  0.73989748  0.59277600  0.17929320     0.13500
C1608       C  0.73712538  0.61351769  0.18892317    -0.22600
C1609       C  0.74961916  0.67250806  0.16512219    -0.05600
H1610       H  0.75273182  0.62853232  0.14944747     0.15100
C1611       C  0.73814565  0.56556135  0.18526042    -0.15800
H1612       H  0.73313316  0.60942471  0.20003261     0.09400
H1613       H  0.78906402  0.72471898  0.21145036     0.07200
H1614       H  0.80519886  0.69453364  0.20780519     0.08400
H1615       H  0.79304825  0.70028071  0.22534348     0.07500
H1616       H  0.68911164  0.63700920  0.19855471     0.02400
H1617       H  0.68797348  0.66079566  0.18435502     0.02900
H1618       H  0.67300672  0.66770868  0.20124772     0.06400
H1619       H  0.75334277  0.67337139  0.15349265     0.05300
H1620       H  0.76639512  0.68174778  0.17059693    -0.00400
H1621       H  0.73165772  0.68384179  0.16741101     0.01000
H1622       H  0.75163988  0.56368985  0.19443730     0.04700
H1623       H  0.74380056  0.55026544  0.17757899     0.06600
H1624       H  0.71795442  0.56178618  0.18899452     0.07500
C1625       C  0.70380367  0.68357893  0.29734867    -0.22100
C1626       C  0.72564253  0.66834817  0.30054137     0.09900
C1627       C  0.74888966  0.67182203  0.29277992     0.10300
C1628       C  0.74967372  0.69033702  0.28182023    -0.17000
C1629       C  0.72773902  0.70557363  0.27838682    -0.27400
C1630       C  0.70448469  0.70226333  0.28644366     0.18600
C1631       C  0.72360933  0.64856623  0.31194254     0.12600
C1632       C  0.77296792  0.65620338  0.29618452    -0.11800
H1633       H  0.76757496  0.69274854  0.27583721     0.12900
C1634       C  0.68042764  0.71854575  0.28398218    -0.22600
H1635       H  0.68608638  0.68074240  0.30345263     0.08500
C1636       C  0.72410723  0.65556715  0.32645490     0.04800
C1637       C  0.72251816  0.63598794  0.33683500    -0.19900
C1638       C  0.72085472  0.60962701  0.33299975    -0.12100
C1639       C  0.71979765  0.60268493  0.31845018     0.13500
C1640       C  0.72112406  0.62231265  0.30809202    -0.22600
C1641       C  0.72689393  0.68359016  0.33096512    -0.05600
H1642       H  0.72318986  0.64120785  0.34800390     0.15100
C1643       C  0.71639209  0.57479467  0.31378557    -0.15800
H1644       H  0.72034471  0.61720680  0.29690986     0.09400
H1645       H  0.66484692  0.71412201  0.29183304     0.07200
H1646       H  0.67233082  0.71452702  0.27326381     0.08400
H1647       H  0.68529599  0.73954355  0.28502093     0.07500
H1648       H  0.76909378  0.63514597  0.29454308     0.02400
H1649       H  0.77866555  0.65954202  0.30743041     0.02900
H1650       H  0.78967441  0.66177311  0.28930493     0.06400
H1651       H  0.72752848  0.68557324  0.34272518     0.05300
H1652       H  0.71010204  0.69512166  0.32700376    -0.00400
H1653       H  0.74522868  0.69178055  0.32655133     0.01000
H1654       H  0.71437854  0.57319164  0.30205395     0.04700
H1655       H  0.69854567  0.56651198  0.31871374     0.06600
H1656       H  0.73355656  0.56304103  0.31694265     0.07500
C1657       C  0.57993572  0.15213672  0.37277901    -0.22100
C1658       C  0.60545916  0.16169831  0.37190389     0.09900
C1659       C  0.60982617  0.18883157  0.37213895     0.10300
C1660       C  0.58843912  0.20584962  0.37318809    -0.17000
C1661       C  0.56277428  0.19634383  0.37387320    -0.27400
C1662       C  0.55851210  0.16907851  0.37383865     0.18600
C1663       C  0.62730032  0.14277834  0.37124372     0.12600
C1664       C  0.63704521  0.19974366  0.37142267    -0.11800
H1665       H  0.59174557  0.22671220  0.37333732     0.12900
C1666       C  0.53165488  0.15762234  0.37560895    -0.22600
H1667       H  0.57683869  0.13123757  0.37279517     0.08500
C1668       C  0.63675254  0.13051936  0.38363291     0.04800
C1669       C  0.65689041  0.11211426  0.38250882    -0.19900
C1670       C  0.66761055  0.10539884  0.36925741    -0.12100
C1671       C  0.65846849  0.11815213  0.35684632     0.13500
C1672       C  0.63829062  0.13656604  0.35801614    -0.22600
C1673       C  0.62546212  0.13678612  0.39802822    -0.05600
H1674       H  0.66388098  0.10241613  0.39201077     0.15100
C1675       C  0.66996540  0.11358881  0.34229624    -0.15800
H1676       H  0.63110940  0.14622576  0.34853882     0.09400
H1677       H  0.53231072  0.13605239  0.37652082     0.07200
H1678       H  0.51937243  0.16234832  0.36628042     0.08400
H1679       H  0.52245951  0.16539985  0.38542727     0.07500
H1680       H  0.64648390  0.19370630  0.36131643     0.02400
H1681       H  0.64869390  0.19234374  0.38051433     0.02900
H1682       H  0.63705411  0.22137179  0.37187628     0.06400
H1683       H  0.63524671  0.12564931  0.40663126     0.05300
H1684       H  0.60440675  0.13180984  0.39823078    -0.00400
H1685       H  0.62786306  0.15788196  0.40029034     0.01000
H1686       H  0.65483629  0.10534636  0.33515486     0.04700
H1687       H  0.68693216  0.10027519  0.34238971     0.06600
H1688       H  0.67677547  0.13242241  0.33781902     0.07500
C1689       C  0.87599289  0.03204106  0.43131948    -0.22100
C1690       C  0.87963758  0.00826360  0.43835468     0.09900
C1691       C  0.86452815  0.98648885  0.43442415     0.10300
C1692       C  0.84614887  0.98896980  0.42343805    -0.17000
C1693       C  0.84230242  0.01280055  0.41634583    -0.27400
C1694       C  0.85782289  0.03456865  0.42022777     0.18600
C1695       C  0.89925794  0.00677244  0.44990578     0.12600
C1696       C  0.86747057  0.96079716  0.44200734    -0.11800
H1697       H  0.83431821  0.97228918  0.42056508     0.12900
C1698       C  0.85683998  0.06040230  0.41261498    -0.22600
H1699       H  0.88782742  0.04865888  0.43433443     0.08500
C1700       C  0.92522629  0.99909496  0.44723177     0.04800
C1701       C  0.94317094  0.99853359  0.45850754    -0.19900
C1702       C  0.93591970  0.00620566  0.47229684    -0.12100
C1703       C  0.90997159  0.01433026  0.47488453     0.13500
C1704       C  0.89189453  0.01414363  0.46368434    -0.22600
C1705       C  0.93412887  0.99214463  0.43243751    -0.05600
H1706       H  0.96312804  0.99265664  0.45651706     0.15100
C1707       C  0.90089934  0.02429407  0.48912949    -0.15800
H1708       H  0.87202580  0.02040790  0.46563282     0.09400
H1709       H  0.87678694  0.06587436  0.40910856     0.07200
H1710       H  0.84945378  0.07563425  0.41997674     0.08400
H1711       H  0.84457134  0.06013536  0.40295780     0.07500
H1712       H  0.86310700  0.96335683  0.45349135     0.02400
H1713       H  0.88769066  0.95344587  0.44081149     0.02900
H1714       H  0.85399954  0.94581430  0.43769453     0.06400
H1715       H  0.95512810  0.98687302  0.43219318     0.05300
H1716       H  0.93116699  0.00904009  0.42524334    -0.00400
H1717       H  0.92281511  0.97530080  0.42837625     0.01000
H1718       H  0.89313869  0.04436638  0.48789054     0.04700
H1719       H  0.91665116  0.02512172  0.49714764     0.06600
H1720       H  0.88516719  0.01150932  0.49326144     0.07500
C1721       C  0.72128258  0.86014634  0.28545854    -0.22100
C1722       C  0.73423391  0.85470267  0.29823183     0.09900
C1723       C  0.74560443  0.83000431  0.30036793     0.10300
C1724       C  0.74474023  0.81161959  0.28935222    -0.17000
C1725       C  0.73220322  0.81715827  0.27642687    -0.27400
C1726       C  0.72016301  0.84171177  0.27445902     0.18600
C1727       C  0.73590984  0.87538163  0.30912320     0.12600
C1728       C  0.75816779  0.82288878  0.31432876    -0.11800
H1729       H  0.75369138  0.79268460  0.29087063     0.12900
C1730       C  0.70701973  0.84969481  0.26079545    -0.22600
H1731       H  0.71248933  0.87915675  0.28394867     0.08500
C1732       C  0.75814399  0.89140924  0.31028335     0.04800
C1733       C  0.75873906  0.91088555  0.32074139    -0.19900
C1734       C  0.73733275  0.91516750  0.32975921    -0.12100
C1735       C  0.71498411  0.89912013  0.32851177     0.13500
C1736       C  0.71458509  0.87944897  0.31815593    -0.22600
C1737       C  0.78083238  0.88854259  0.30019603    -0.05600
H1738       H  0.77572427  0.92334549  0.32162944     0.15100
C1739       C  0.69156368  0.90151154  0.33811751    -0.15800
H1740       H  0.69755501  0.86706592  0.31716103     0.09400
H1741       H  0.71631584  0.86771183  0.25666634     0.07200
H1742       H  0.68609190  0.85371857  0.26288178     0.08400
H1743       H  0.70839109  0.83484405  0.25229625     0.07500
H1744       H  0.74358986  0.82448425  0.32302036     0.02400
H1745       H  0.77468442  0.83614743  0.31664517     0.02900
H1746       H  0.76576788  0.80262075  0.31423245     0.06400
H1747       H  0.79640679  0.90299860  0.30244333     0.05300
H1748       H  0.77407389  0.89155894  0.28910185    -0.00400
H1749       H  0.78947250  0.86881637  0.30110472     0.01000
H1750       H  0.67418695  0.90677243  0.33169356     0.04700
H1751       H  0.69401586  0.91623148  0.34660914     0.06600
H1752       H  0.68790581  0.88252519  0.34341951     0.07500
loop_ 
_geom_bond_atom_site_label_1 
_geom_bond_atom_site_label_2 
_geom_bond_distance 
_geom_bond_site_symmetry_2 
_ccdc_geom_bond_type 
N1            N2   1.323       .  A
N1            C5   1.346       .  A
N1           Cu9   2.076   1_565  S
N2            C3   1.344       .  A
N2           Cu8   2.072       .  S
C3            C4   1.382       .  A
C3            H6   1.082       .  S
C4            C5   1.384       .  A
C4         C1734   1.476       .  S
C5            H7   1.082       .  S
Cu8          N11   2.072   1_565  S
Cu9          N19   2.077       .  S
Cu10         N12   2.085       .  S
Cu10         N18   2.085       .  S
N11          N12   1.322       .  A
N11          C15   1.345   1_545  A
N12          C13   1.347       .  A
C13          C14   1.388       .  A
C13          H16   1.082       .  S
C14          C15   1.385   1_545  A
C14        C1693   1.487       .  S
C15          H17   1.082       .  S
N18          N19   1.323       .  A
N18          C22   1.346       .  A
N19          C20   1.346       .  A
C20          C21   1.385       .  A
C20          H23   1.082       .  S
C21          C22   1.385       .  A
C21        C1670   1.482       .  S
C22          H24   1.082       .  S
O25         Cu33   1.994       .  S
O25          C35   1.276       .  A
O26         Cu33   2.001       .  S
O26          C36   1.276       .  A
O27         Cu33   2.017       .  S
O27          C37   1.278       .  A
O28         Cu33   2.012       .  S
O28          C38   1.279       .  A
O29         Cu34   2.003       .  S
O29          C38   1.276       .  A
O30         Cu34   2.000       .  S
O30          C37   1.276       .  A
O31         Cu34   2.017       .  S
O31          C36   1.280       .  A
O32         Cu34   2.016       .  S
O32          C35   1.279       .  A
Cu33        Cu34   2.369       .  S
C35        C1725   1.472       .  S
C36        C1597   1.495       .  S
C37        C1565   1.472       .  S
C38        C1629   1.490       .  S
N39          N40   1.323       .  A
N39          C43   1.343       .  A
N39         Cu47   2.070       .  S
N40          C41   1.346       .  A
N40         Cu46   2.078       .  S
C41          C42   1.383       .  A
C41          H44   1.081       .  S
C42          C43   1.381       .  A
C42        C1638   1.476       .  S
C43          H45   1.082       .  S
Cu46         N49   2.078       .  S
Cu47         N57   2.070       .  S
Cu48         N50   2.063       .  S
Cu48         N56   2.062       .  S
N49          N50   1.322       .  A
N49          C53   1.346       .  A
N50          C51   1.343       .  A
C51          C52   1.380       .  A
C51          H54   1.082       .  S
C52          C53   1.384       .  A
C52        C1533   1.475       .  S
C53          H55   1.082       .  S
N56          N57   1.320       .  A
N56          C60   1.342       .  A
N57          C58   1.345       .  A
C58          C59   1.385       .  A
C58          H61   1.082       .  S
C59          C60   1.383       .  A
C59        C1501   1.479       .  S
C60          H62   1.080       .  S
N63          N64   1.321       .  A
N63          C67   1.345       .  A
N63         Cu71   2.068       .  S
N64          C65   1.345       .  A
N64         Cu70   2.080       .  S
C65          C66   1.387       .  A
C65          H68   1.082       .  S
C66          C67   1.385       .  A
C66        C1606   1.484       .  S
C67          H69   1.082       .  S
Cu70         N73   2.080       .  S
Cu71         N81   2.068       .  S
Cu72         N74   2.083       .  S
Cu72         N80   2.082       .  S
N73          N74   1.324       .  A
N73          C77   1.346       .  A
N74          C75   1.346       .  A
C75          C76   1.383       .  A
C75          H78   1.082       .  S
C76          C77   1.382       .  A
C76        C1469   1.477       .  S
C77          H79   1.081       .  S
N80          N81   1.322       .  A
N80          C84   1.348       .  A
N81          C82   1.343       .  A
C82          C83   1.383       .  A
C82          H85   1.082       .  S
C83          C84   1.389       .  A
C83        C1437   1.485       .  S
C84          H86   1.082       .  S
N87          N88   1.322       .  A
N87          C91   1.344       .  A
N87         Cu95   2.066   1_565  S
N88          C89   1.346       .  A
N88         Cu94   2.083       .  S
C89          C90   1.387       .  A
C89          H92   1.082       .  S
C90          C91   1.383       .  A
C90        C1574   1.481       .  S
C91          H93   1.082       .  S
Cu94         N97   2.083       .  S
Cu95        N105   2.066       .  S
Cu96         N98   2.088       .  S
Cu96        N104   2.088       .  S
N97          N98   1.323   1_565  A
N97         C101   1.347       .  A
N98          C99   1.347       .  A
C99         C100   1.387       .  A
C99         H102   1.082       .  S
C100        C101   1.386   1_545  A
C100       C1405   1.488       .  S
C101        H103   1.082       .  S
N104        N105   1.322       .  A
N104        C108   1.348       .  A
N105        C106   1.344       .  A
C106        C107   1.381       .  A
C106        H109   1.082       .  S
C107        C108   1.387       .  A
C107       C1373   1.481       .  S
C108        H110   1.082       .  S
C111        C112   1.413       .  A
C111        C116   1.407   1_544  A
C111       C1414   1.485       .  S
C112        C113   1.402   1_554  A
C112       C1318   1.487       .  S
C113        C114   1.404       .  A
C113        H118   1.084       .  S
C114        C115   1.416   1_545  A
C114       C1350   1.483       .  S
C115        C116   1.406       .  A
C115       C1277   1.494       .  S
C116        H117   1.084       .  S
N119        N120   1.323       .  A
N119        C123   1.346       .  A
N119       Cu127   2.081       .  S
N120        C121   1.349       .  A
N120       Cu126   2.089       .  S
C121        C122   1.386       .  A
C121        H124   1.082       .  S
C122        C123   1.384       .  A
C122       C1254   1.484       .  S
C123        H125   1.082       .  S
Cu126       N129   2.089       .  S
Cu127       N137   2.081   1_545  S
Cu128       N130   2.070   1_565  S
Cu128       N136   2.070       .  S
N129        N130   1.323       .  A
N129        C133   1.347       .  A
N130        C131   1.345   1_545  A
C131        C132   1.382   1_565  A
C131        H134   1.082       .  S
C132        C133   1.387       .  A
C132       C1341   1.481       .  S
C133        H135   1.081       .  S
N136        N137   1.321       .  A
N136        C140   1.345       .  A
N137        C138   1.345       .  A
C138        C139   1.386       .  A
C138        H141   1.082       .  S
C139        C140   1.385       .  A
C139       C1222   1.482       .  S
C140        H142   1.081       .  S
N143        N144   1.323       .  A
N143        C147   1.346       .  A
N143       Cu151   2.082       .  S
N144        C145   1.346       .  A
N144       Cu150   2.085       .  S
C145        C146   1.385       .  A
C145        H148   1.082       .  S
C146        C147   1.385       .  A
C146       C1190   1.485       .  S
C147        H149   1.082       .  S
Cu150       N153   2.085       .  S
Cu151       N161   2.082       .  S
Cu152       N154   2.074       .  S
Cu152       N160   2.073       .  S
N153        N154   1.322       .  A
N153        C157   1.347       .  A
N154        C155   1.345       .  A
C155        C156   1.384       .  A
C155        H158   1.082       .  S
C156        C157   1.388       .  A
C156       C1149   1.486       .  S
C157        H159   1.081       .  S
N160        N161   1.322       .  A
N160        C164   1.344       .  A
N161        C162   1.347       .  A
C162        C163   1.386       .  A
C162        H165   1.082       .  S
C163        C164   1.383       .  A
C163       C1117   1.482       .  S
C164        H166   1.081       .  S
O167       Cu175   2.020       .  S
O167        C177   1.279       .  A
O168       Cu175   2.018       .  S
O168        C178   1.279       .  A
O169       Cu175   2.007       .  S
O169        C179   1.277       .  A
O170       Cu175   2.009       .  S
O170        C180   1.279       .  A
O171       Cu176   2.030       .  S
O171        C180   1.280       .  A
O172       Cu176   2.026       .  S
O172        C179   1.280       .  A
O173       Cu176   2.002       .  S
O173        C178   1.276       .  A
O174       Cu176   2.000       .  S
O174        C177   1.276       .  A
Cu175      Cu176   2.371       .  S
C177       C1181   1.475       .  S
C178       C1085   1.475       .  S
C179       C1053   1.481       .  S
C180       C1245   1.501       .  S
N181        N182   1.321       .  A
N181        C185   1.344       .  A
N181       Cu189   2.072       .  S
N182        C183   1.346       .  A
N182       Cu188   2.078       .  S
C183        C184   1.387       .  A
C183        H186   1.082       .  S
C184        C185   1.384       .  A
C184       C1094   1.484       .  S
C185        H187   1.082       .  S
Cu188       N191   2.078       .  S
Cu189       N199   2.072   1_545  S
Cu190       N192   2.081       .  S
Cu190       N198   2.081       .  S
N191        N192   1.323   1_545  A
N191        C195   1.345       .  A
N192        C193   1.347       .  A
C193        C194   1.385   1_565  A
C193        H196   1.082       .  S
C194        C195   1.385       .  A
C194       C1021   1.483       .  S
C195        H197   1.081       .  S
N198        N199   1.322       .  A
N198        C202   1.347       .  A
N199        C200   1.344       .  A
C200        C201   1.382       .  A
C200        H203   1.082       .  S
C201        C202   1.386       .  A
C201        C989   1.481       .  S
C202        H204   1.081       .  S
N205        N206   1.322       .  A
N205        C209   1.347       .  A
N205       Cu213   2.081       .  S
N206        C207   1.346       .  A
N206       Cu212   2.076       .  S
C207        C208   1.383       .  A
C207        H210   1.082       .  S
C208        C209   1.386       .  A
C208       C1062   1.482       .  S
C209        H211   1.082       .  S
Cu212       N215   2.076       .  S
Cu213       N223   2.081       .  S
Cu214       N216   2.077       .  S
Cu214       N222   2.078       .  S
N215        N216   1.323       .  A
N215        C219   1.346       .  A
N216        C217   1.345       .  A
C217        C218   1.383       .  A
C217        H220   1.082       .  S
C218        C219   1.383       .  A
C218        C957   1.478       .  S
C219        H221   1.082       .  S
N222        N223   1.323       .  A
N222        C226   1.347       .  A
N223        C224   1.345       .  A
C224        C225   1.386       .  A
C224        H227   1.082       .  S
C225        C226   1.385       .  A
C225        C925   1.484       .  S
C226        H228   1.082       .  S
C229        C230   1.414       .  A
C229        C234   1.405   1_554  A
C229       C1478   1.487       .  S
C230        C231   1.405   1_654  A
C230        C870   1.485       .  S
C231        C232   1.404       .  A
C231        H236   1.084       .  S
C232        C233   1.413   1_455  A
C232       C1158   1.484       .  S
C233        C234   1.404       .  A
C233        C893   1.486       .  S
C234        H235   1.084       .  S
O237       Cu245   2.009       .  S
O237        C247   1.279       .  A
O238       Cu245   2.012       .  S
O238        C248   1.277       .  A
O239       Cu245   2.022       .  S
O239        C249   1.279       .  A
O240       Cu245   2.028       .  S
O240        C250   1.280       .  A
O241       Cu246   2.001       .  S
O241        C250   1.276       .  A
O242       Cu246   2.000       .  S
O242        C249   1.276       .  A
O243       Cu246   2.021       .  S
O243        C248   1.279       .  A
O244       Cu246   2.021       .  S
O244        C247   1.279       .  A
Cu245      Cu246   2.371       .  S
C247        C765   1.495       .  S
C248        C829   1.478       .  S
C249        C733   1.475       .  S
C250        C797   1.480       .  S
N251        N252   1.323       .  A
N251        C255   1.346       .  A
N251       Cu259   2.076       .  S
N252        C253   1.348       .  A
N252       Cu258   2.091       .  S
C253        C254   1.386       .  A
C253        H256   1.082       .  S
C254        C255   1.383       .  A
C254        C806   1.481       .  S
C255        H257   1.082       .  S
Cu258       N261   2.091       .  S
Cu259       N269   2.076       .  S
Cu260       N262   2.076       .  S
Cu260       N268   2.076       .  S
N261        N262   1.322       .  A
N261        C265   1.348       .  A
N262        C263   1.345       .  A
C263        C264   1.385       .  A
C263        H266   1.081       .  S
C264        C265   1.389       .  A
C264       C1286   1.489       .  S
C265        H267   1.081       .  S
N268        N269   1.322       .  A
N268        C272   1.346       .  A
N269        C270   1.345       .  A
C270        C271   1.383       .  A
C270        H273   1.082       .  S
C271        C272   1.384       .  A
C271       C1126   1.479       .  S
C272        H274   1.081       .  S
N275        N276   1.323       .  A
N275        C279   1.346       .  A
N275       Cu283   2.075       .  S
N276        C277   1.346       .  A
N276       Cu282   2.081       .  S
C277        C278   1.384       .  A
C277        H280   1.082       .  S
C278        C279   1.383       .  A
C278        C774   1.479       .  S
C279        H281   1.082       .  S
Cu282       N285   2.082       .  S
Cu283       N293   2.075   1_655  S
Cu284       N286   2.079   1_455  S
Cu284       N292   2.079       .  S
N285        N286   1.323       .  A
N285        C289   1.347       .  A
N286        C287   1.345   1_655  A
C287        C288   1.384   1_455  A
C287        H290   1.081       .  S
C288        C289   1.385       .  A
C288        C902   1.482       .  S
C289        H291   1.082       .  S
N292        N293   1.322       .  A
N292        C296   1.347       .  A
N293        C294   1.344       .  A
C294        C295   1.384       .  A
C294        H297   1.082       .  S
C295        C296   1.387       .  A
C295       C1213   1.483       .  S
C296        H298   1.081       .  S
N299        N300   1.324       .  A
N299        C303   1.347       .  A
N299       Cu307   2.083       .  S
N300        C301   1.347       .  A
N300       Cu306   2.087       .  S
C301        C302   1.384       .  A
C301        H304   1.082       .  S
C302        C303   1.385       .  A
C302        C838   1.483       .  S
C303        H305   1.082       .  S
Cu306       N309   2.087       .  S
Cu307       N317   2.083       .  S
Cu308       N310   2.073       .  S
Cu308       N316   2.073       .  S
N309        N310   1.321       .  A
N309        C313   1.347       .  A
N310        C311   1.345       .  A
C311        C312   1.386       .  A
C311        H314   1.080       .  S
C312        C313   1.389       .  A
C312        C710   1.489       .  S
C313        H315   1.082       .  S
N316        N317   1.322       .  A
N316        C320   1.345       .  A
N317        C318   1.347       .  A
C318        C319   1.386       .  A
C318        H321   1.082       .  S
C319        C320   1.385       .  A
C319        C998   1.483       .  S
C320        H322   1.082       .  S
N323        N324   1.323       .  A
N323        C327   1.344       .  A
N323       Cu331   2.074       .  S
N324        C325   1.347       .  A
N324       Cu330   2.081       .  S
C325        C326   1.385       .  A
C325        H328   1.082       .  S
C326        C327   1.381       .  A
C326        C742   1.478       .  S
C327        H329   1.082       .  S
Cu330       N333   2.081       .  S
Cu331       N341   2.074   1_655  S
Cu332       N334   2.079   1_455  S
Cu332       N340   2.079       .  S
N333        N334   1.324       .  A
N333        C337   1.347       .  A
N334        C335   1.345       .  A
C335        C336   1.383       .  A
C335        H338   1.082   1_655  S
C336        C337   1.383       .  A
C336        C669   1.479       .  S
C337        H339   1.082       .  S
N340        N341   1.322       .  A
N340        C344   1.346       .  A
N341        C342   1.345       .  A
C342        C343   1.386       .  A
C342        H345   1.082       .  S
C343        C344   1.385       .  A
C343        C934   1.484       .  S
C344        H346   1.082       .  S
N347        N348   1.322       .  A
N347        C351   1.344       .  A
N347       Cu355   2.067   1_455  S
N348        C349   1.348       .  A
N348       Cu354   2.090       .  S
C349        C350   1.388       .  A
C349        H352   1.081       .  S
C350        C351   1.383       .  A
C350        C637   1.483       .  S
C351        H353   1.080       .  S
Cu354       N357   2.091   1_455  S
Cu355       N365   2.067       .  S
Cu356       N358   2.088       .  S
Cu356       N364   2.087       .  S
N357        N358   1.324       .  A
N357        C361   1.347       .  A
N358        C359   1.347       .  A
C359        C360   1.385       .  A
C359        H362   1.082       .  S
C360        C361   1.387       .  A
C360        C861   1.488       .  S
C361        H363   1.081   1_655  S
N364        N365   1.321       .  A
N364        C368   1.348       .  A
N365        C366   1.343       .  A
C366        C367   1.383       .  A
C366        H369   1.082       .  S
C367        C368   1.389       .  A
C367       C1382   1.485       .  S
C368        H370   1.080       .  S
N371        N372   1.323       .  A
N371        C375   1.344       .  A
N371       Cu379   2.071       .  S
N372        C373   1.349       .  A
N372       Cu378   2.098       .  S
C373        C374   1.388       .  A
C373        H376   1.083       .  S
C374        C375   1.382       .  A
C374        C614   1.484       .  S
C375        H377   1.080       .  S
Cu378       N381   2.099       .  S
Cu379       N389   2.071       .  S
Cu380       N382   2.077       .  S
Cu380       N388   2.076       .  S
N381        N382   1.324       .  A
N381        C385   1.349       .  A
N382        C383   1.346       .  A
C383        C384   1.382       .  A
C383        H386   1.082       .  S
C384        C385   1.388       .  A
C384       C1309   1.483       .  S
C385        H387   1.082       .  S
N388        N389   1.321       .  A
N388        C392   1.345       .  A
N389        C390   1.346       .  A
C390        C391   1.384       .  A
C390        H393   1.082       .  S
C391        C392   1.385       .  A
C391       C1446   1.480       .  S
C392        H394   1.081       .  S
O395       Cu403   2.008       .  S
O395        C405   1.277       .  A
O396       Cu403   2.012       .  S
O396        C406   1.277       .  A
O397       Cu403   2.004       .  S
O397        C407   1.279       .  A
O398       Cu403   2.010       .  S
O398        C408   1.279       .  A
O399       Cu404   2.018       .  S
O399        C408   1.278       .  A
O400       Cu404   2.022       .  S
O400        C407   1.278       .  A
O401       Cu404   2.010       .  S
O401        C406   1.279       .  A
O402       Cu404   2.009       .  S
O402        C405   1.278       .  A
Cu403      Cu404   2.362       .  S
C405        C573   1.480       .  S
C406        C646   1.496       .  S
C407        C605   1.498       .  S
C408        C550   1.499       .  S
N409        N410   1.321       .  A
N409        C413   1.344       .  A
N409       Cu417   2.068   1_455  S
N410        C411   1.345       .  A
N410       Cu416   2.070       .  S
C411        C412   1.383       .  A
C411        H414   1.082       .  S
C412        C413   1.383       .  A
C412        C541   1.478       .  S
C413        H415   1.082       .  S
Cu416       N419   2.071   1_455  S
Cu417       N427   2.068       .  S
Cu418       N420   2.076       .  S
Cu418       N426   2.077       .  S
N419        N420   1.323       .  A
N419        C423   1.343       .  A
N420        C421   1.346       .  A
C421        C422   1.383       .  A
C421        H424   1.082       .  S
C422        C423   1.381       .  A
C422        C509   1.474       .  S
C423        H425   1.082   1_655  S
N426        N427   1.322       .  A
N426        C430   1.347       .  A
N427        C428   1.342       .  A
C428        C429   1.382       .  A
C428        H431   1.082       .  S
C429        C430   1.386       .  A
C429       C1510   1.479       .  S
C430        H432   1.081       .  S
N433        N434   1.323       .  A
N433        C437   1.345       .  A
N433       Cu441   2.076       .  S
N434        C435   1.348       .  A
N434       Cu440   2.092       .  S
C435        C436   1.387       .  A
C435        H438   1.080       .  S
C436        C437   1.382       .  A
C436        C582   1.483       .  S
C437        H439   1.083       .  S
Cu440       N443   2.092       .  S
Cu441       N451   2.075       .  S
Cu442       N444   2.074       .  S
Cu442       N450   2.074       .  S
N443        N444   1.323       .  A
N443        C447   1.349       .  A
N444        C445   1.344       .  A
C445        C446   1.381       .  A
C445        H448   1.082       .  S
C446        C447   1.389       .  A
C446        C486   1.484       .  S
C447        H449   1.082       .  S
N450        N451   1.321       .  A
N450        C454   1.346       .  A
N451        C452   1.345       .  A
C452        C453   1.386       .  A
C452        H455   1.081       .  S
C453        C454   1.386       .  A
C453       C1661   1.484       .  S
C454        H456   1.082       .  S
C457        C458   1.410       .  A
C457        C462   1.401       .  A
C457        C518   1.476       .  S
C458        C459   1.402   1_545  A
C458       C1702   1.487       .  S
C459        C460   1.406       .  A
C459        H464   1.084       .  S
C460        C461   1.416   1_565  A
C460        C678   1.485       .  S
C461        C462   1.402       .  A
C461       C1030   1.487   1_655  S
C462        H463   1.084   1_655  S
C465        C466   1.410       .  A
C465        C470   1.400       .  A
C465        C477   1.483       .  S
C466        C467   1.403       .  A
C466       C1542   1.476       .  S
C467        C468   1.404       .  A
C467        H472   1.085       .  S
C468        C469   1.415       .  A
C468        C701   1.490       .  S
C469        C470   1.402       .  A
C469        C966   1.479       .  S
C470        H471   1.085       .  S
C473        C474   1.403       .  A
C473        C478   1.405       .  A
C473        H483   1.084       .  S
C474        C475   1.412       .  A
C474        C479   1.486       .  S
C475        C476   1.403       .  A
C475        C480   1.506       .  S
C476        C477   1.401       .  A
C476        H481   1.083       .  S
C477        C478   1.415       .  A
C478        C482   1.507       .  S
C479        C484   1.410       .  A
C479        C488   1.402       .  A
C480        H496   1.110       .  S
C480        H497   1.111       .  S
C480        H498   1.111       .  S
C482        H493   1.110       .  S
C482        H494   1.110       .  S
C482        H495   1.108       .  S
C484        C485   1.406       .  A
C484        C489   1.506       .  S
C485        C486   1.406       .  A
C485        H490   1.084       .  S
C486        C487   1.417       .  A
C487        C488   1.405       .  A
C487        C491   1.507       .  S
C488        H492   1.085       .  S
C489        H499   1.111       .  S
C489        H500   1.110       .  S
C489        H501   1.110       .  S
C491        H502   1.111       .  S
C491        H503   1.106       .  S
C491        H504   1.110       .  S
C505        C506   1.401       .  A
C505        C510   1.402       .  A
C505        H515   1.085       .  S
C506        C507   1.411       .  A
C506        C511   1.479       .  S
C507        C508   1.401       .  A
C507        C512   1.507   1_655  S
C508        C509   1.403       .  A
C508        H513   1.084   1_655  S
C509        C510   1.416       .  A
C510        C514   1.507       .  S
C511        C516   1.412       .  A
C511        C520   1.402       .  A
C512        H528   1.109       .  S
C512        H529   1.110       .  S
C512        H530   1.111       .  S
C514        H525   1.110       .  S
C514        H526   1.111       .  S
C514        H527   1.107       .  S
C516        C517   1.401       .  A
C516        C521   1.507       .  S
C517        C518   1.402       .  A
C517        H522   1.084       .  S
C518        C519   1.413       .  A
C519        C520   1.400       .  A
C519        C523   1.507   1_655  S
C520        H524   1.084   1_655  S
C521        H531   1.111       .  S
C521        H532   1.110       .  S
C521        H533   1.110       .  S
C523        H534   1.111       .  S
C523        H535   1.108       .  S
C523        H536   1.110       .  S
C537        C538   1.400       .  A
C537        C542   1.403       .  A
C537        H547   1.085       .  S
C538        C539   1.411       .  A
C538        C543   1.481       .  S
C539        C540   1.405       .  A
C539        C544   1.506       .  S
C540        C541   1.404       .  A
C540        H545   1.085       .  S
C541        C542   1.415       .  A
C542        C546   1.507       .  S
C543        C548   1.407       .  A
C543        C552   1.398       .  A
C544        H560   1.110       .  S
C544        H561   1.109       .  S
C544        H562   1.111       .  S
C546        H557   1.111       .  S
C546        H558   1.108       .  S
C546        H559   1.110       .  S
C548        C549   1.404       .  A
C548        C553   1.507       .  S
C549        C550   1.412       .  A
C549        H554   1.084       .  S
C550        C551   1.425       .  A
C551        C552   1.406       .  A
C551        C555   1.508       .  S
C552        H556   1.085       .  S
C553        H563   1.111       .  S
C553        H564   1.110       .  S
C553        H565   1.109       .  S
C555        H566   1.110       .  S
C555        H567   1.110       .  S
C555        H568   1.111       .  S
C569        C570   1.402       .  A
C569        C574   1.405       .  A
C569        H579   1.084       .  S
C570        C571   1.412       .  A
C570        C575   1.486       .  S
C571        C572   1.404       .  A
C571        C576   1.507       .  S
C572        C573   1.404       .  A
C572        H577   1.084       .  S
C573        C574   1.416       .  A
C574        C578   1.508       .  S
C575        C580   1.412       .  A
C575        C584   1.403       .  A
C576        H592   1.109       .  S
C576        H593   1.110       .  S
C576        H594   1.111       .  S
C578        H589   1.111       .  S
C578        H590   1.111       .  S
C578        H591   1.109       .  S
C580        C581   1.405       .  A
C580        C585   1.507       .  S
C581        C582   1.405       .  A
C581        H586   1.083       .  S
C582        C583   1.415       .  A
C583        C584   1.406       .  A
C583        C587   1.506       .  S
C584        H588   1.083       .  S
C585        H595   1.111       .  S
C585        H596   1.109       .  S
C585        H597   1.110       .  S
C587        H598   1.110       .  S
C587        H599   1.108       .  S
C587        H600   1.111       .  S
C601        C602   1.402       .  A
C601        C606   1.411       .  A
C601        H611   1.083       .  S
C602        C603   1.409       .  A
C602        C607   1.487       .  S
C603        C604   1.401       .  A
C603        C608   1.508       .  S
C604        C605   1.409       .  A
C604        H609   1.083       .  S
C605        C606   1.424       .  A
C606        C610   1.507       .  S
C607        C612   1.412       .  A
C607        C616   1.402       .  A
C608        H624   1.109       .  S
C608        H625   1.110       .  S
C608        H626   1.110       .  S
C610        H621   1.111       .  S
C610        H622   1.110       .  S
C610        H623   1.110       .  S
C612        C613   1.407       .  A
C612        C617   1.506       .  S
C613        C614   1.405       .  A
C613        H618   1.083       .  S
C614        C615   1.416       .  A
C615        C616   1.405       .  A
C615        C619   1.507       .  S
C616        H620   1.084       .  S
C617        H627   1.111       .  S
C617        H628   1.110       .  S
C617        H629   1.110       .  S
C619        H630   1.108       .  S
C619        H631   1.110       .  S
C619        H632   1.111       .  S
C633        C634   1.400       .  A
C633        C638   1.404       .  A
C633        H643   1.084       .  S
C634        C635   1.411       .  A
C634        C639   1.482       .  S
C635        C636   1.406       .  A
C635        C640   1.506       .  S
C636        C637   1.405       .  A
C636        H641   1.083       .  S
C637        C638   1.417       .  A
C638        C642   1.507       .  S
C639        C644   1.408       .  A
C639        C648   1.399       .  A
C640        H656   1.110       .  S
C640        H657   1.110       .  S
C640        H658   1.111       .  S
C642        H653   1.111       .  S
C642        H654   1.107       .  S
C642        H655   1.110       .  S
C644        C645   1.401       .  A
C644        C649   1.507       .  S
C645        C646   1.409       .  A
C645        H650   1.084       .  S
C646        C647   1.425       .  A
C647        C648   1.408       .  A
C647        C651   1.508       .  S
C648        H652   1.085       .  S
C649        H659   1.111       .  S
C649        H660   1.110       .  S
C649        H661   1.110       .  S
C651        H662   1.110       .  S
C651        H663   1.110       .  S
C651        H664   1.111       .  S
C665        C666   1.401       .  A
C665        C670   1.402       .  A
C665        H675   1.085       .  S
C666        C667   1.412       .  A
C666        C671   1.483       .  S
C667        C668   1.406       .  A
C667        C672   1.507       .  S
C668        C669   1.404       .  A
C668        H673   1.084       .  S
C669        C670   1.416       .  A
C670        C674   1.508       .  S
C671        C676   1.412       .  A
C671        C680   1.401       .  A
C672        H688   1.109       .  S
C672        H689   1.110       .  S
C672        H690   1.111       .  S
C674        H685   1.110       .  S
C674        H686   1.111       .  S
C674        H687   1.106       .  S
C676        C677   1.402       .  A
C676        C681   1.507   1_655  S
C677        C678   1.404       .  A
C677        H682   1.083   1_655  S
C678        C679   1.416       .  A
C679        C680   1.402       .  A
C679        C683   1.507       .  S
C680        H684   1.084       .  S
C681        H691   1.111       .  S
C681        H692   1.109       .  S
C681        H693   1.110       .  S
C683        H694   1.110       .  S
C683        H695   1.106   1_565  S
C683        H696   1.111       .  S
C697        C698   1.401       .  A
C697        C702   1.404       .  A
C697        H707   1.085       .  S
C698        C699   1.410       .  A
C698        C703   1.484       .  S
C699        C700   1.404       .  A
C699        C704   1.506       .  S
C700        C701   1.405       .  A
C700        H705   1.083       .  S
C701        C702   1.418       .  A
C702        C706   1.508       .  S
C703        C708   1.410       .  A
C703        C712   1.400       .  A
C704        H720   1.110       .  S
C704        H721   1.109       .  S
C704        H722   1.111       .  S
C706        H717   1.110       .  S
C706        H718   1.111       .  S
C706        H719   1.107       .  S
C708        C709   1.405       .  A
C708        C713   1.507       .  S
C709        C710   1.406       .  A
C709        H714   1.084       .  S
C710        C711   1.420       .  A
C711        C712   1.406       .  A
C711        C715   1.507       .  S
C712        H716   1.085       .  S
C713        H723   1.111       .  S
C713        H724   1.110       .  S
C713        H725   1.109       .  S
C715        H726   1.111       .  S
C715        H727   1.107       .  S
C715        H728   1.110       .  S
C729        C730   1.399       .  A
C729        C734   1.402       .  A
C729        H739   1.085       .  S
C730        C731   1.412       .  A
C730        C735   1.481       .  S
C731        C732   1.406       .  A
C731        C736   1.506       .  S
C732        C733   1.404       .  A
C732        H737   1.084       .  S
C733        C734   1.416       .  A
C734        C738   1.509       .  S
C735        C740   1.410       .  A
C735        C744   1.402       .  A
C736        H752   1.110       .  S
C736        H753   1.110       .  S
C736        H754   1.111       .  S
C738        H749   1.111       .  S
C738        H750   1.110       .  S
C738        H751   1.107       .  S
C740        C741   1.403       .  A
C740        C745   1.507       .  S
C741        C742   1.404       .  A
C741        H746   1.084       .  S
C742        C743   1.416       .  A
C743        C744   1.405       .  A
C743        C747   1.507       .  S
C744        H748   1.084       .  S
C745        H755   1.111       .  S
C745        H756   1.110       .  S
C745        H757   1.109       .  S
C747        H758   1.110       .  S
C747        H759   1.107       .  S
C747        H760   1.110       .  S
C761        C762   1.400       .  A
C761        C766   1.407       .  A
C761        H771   1.084       .  S
C762        C763   1.409       .  A
C762        C767   1.485       .  S
C763        C764   1.404       .  A
C763        C768   1.507       .  S
C764        C765   1.410       .  A
C764        H769   1.083       .  S
C765        C766   1.422       .  A
C766        C770   1.507       .  S
C767        C772   1.412       .  A
C767        C776   1.402       .  A
C768        H784   1.110       .  S
C768        H785   1.110       .  S
C768        H786   1.111       .  S
C770        H781   1.111       .  S
C770        H782   1.110       .  S
C770        H783   1.110       .  S
C772        C773   1.405       .  A
C772        C777   1.506       .  S
C773        C774   1.403       .  A
C773        H778   1.085       .  S
C774        C775   1.414       .  A
C775        C776   1.405       .  A
C775        C779   1.506       .  S
C776        H780   1.084       .  S
C777        H787   1.111       .  S
C777        H788   1.110       .  S
C777        H789   1.110       .  S
C779        H790   1.111       .  S
C779        H791   1.111       .  S
C779        H792   1.109       .  S
C793        C794   1.402       .  A
C793        C798   1.406       .  A
C793        H803   1.084       .  S
C794        C795   1.411       .  A
C794        C799   1.485       .  S
C795        C796   1.404       .  A
C795        C800   1.507       .  S
C796        C797   1.405       .  A
C796        H801   1.084       .  S
C797        C798   1.417       .  A
C798        C802   1.508       .  S
C799        C804   1.411       .  A
C799        C808   1.401       .  A
C800        H816   1.110       .  S
C800        H817   1.109       .  S
C800        H818   1.111       .  S
C802        H813   1.110       .  S
C802        H814   1.110       .  S
C802        H815   1.106       .  S
C804        C805   1.405       .  A
C804        C809   1.507       .  S
C805        C806   1.404       .  A
C805        H810   1.084       .  S
C806        C807   1.418       .  A
C807        C808   1.406       .  A
C807        C811   1.507       .  S
C808        H812   1.084       .  S
C809        H819   1.111       .  S
C809        H820   1.110       .  S
C809        H821   1.109       .  S
C811        H822   1.110       .  S
C811        H823   1.107       .  S
C811        H824   1.111       .  S
C825        C826   1.401       .  A
C825        C830   1.405       .  A
C825        H835   1.084       .  S
C826        C827   1.412       .  A
C826        C831   1.486       .  S
C827        C828   1.407       .  A
C827        C832   1.506       .  S
C828        C829   1.405       .  A
C828        H833   1.084       .  S
C829        C830   1.416       .  A
C830        C834   1.508       .  S
C831        C836   1.411       .  A
C831        C840   1.402       .  A
C832        H848   1.110       .  S
C832        H849   1.110       .  S
C832        H850   1.111       .  S
C834        H845   1.110       .  S
C834        H846   1.110       .  S
C834        H847   1.107       .  S
C836        C837   1.405       .  A
C836        C841   1.506       .  S
C837        C838   1.404       .  A
C837        H842   1.084       .  S
C838        C839   1.418       .  A
C839        C840   1.406       .  A
C839        C843   1.507       .  S
C840        H844   1.084       .  S
C841        H851   1.111       .  S
C841        H852   1.110       .  S
C841        H853   1.110       .  S
C843        H854   1.110       .  S
C843        H855   1.107       .  S
C843        H856   1.111       .  S
C857        C858   1.401   1_455  A
C857        C862   1.406       .  A
C857        H867   1.084       .  S
C858        C859   1.411       .  A
C858        C863   1.486       .  S
C859        C860   1.407       .  A
C859        C864   1.506       .  S
C860        C861   1.406       .  A
C860        H865   1.084       .  S
C861        C862   1.417   1_655  A
C862        C866   1.507       .  S
C863        C868   1.412       .  A
C863        C872   1.402       .  A
C864        H880   1.110       .  S
C864        H881   1.109       .  S
C864        H882   1.111       .  S
C866        H877   1.111       .  S
C866        H878   1.110       .  S
C866        H879   1.107       .  S
C868        C869   1.405       .  A
C868        C873   1.505   1_655  S
C869        C870   1.403       .  A
C869        H874   1.084   1_655  S
C870        C871   1.416       .  A
C871        C872   1.404       .  A
C871        C875   1.507       .  S
C872        H876   1.085       .  S
C873        H883   1.111       .  S
C873        H884   1.110       .  S
C873        H885   1.110   1_455  S
C875        H886   1.110   1_554  S
C875        H887   1.108   1_554  S
C875        H888   1.111       .  S
C889        C890   1.402       .  A
C889        C894   1.404       .  A
C889        H899   1.084       .  S
C890        C891   1.410       .  A
C890        C895   1.482       .  S
C891        C892   1.403       .  A
C891        C896   1.506       .  S
C892        C893   1.404       .  A
C892        H897   1.083       .  S
C893        C894   1.416       .  A
C894        C898   1.507   1_655  S
C895        C900   1.411       .  A
C895        C904   1.401   1_655  A
C896        H912   1.110       .  S
C896        H913   1.110       .  S
C896        H914   1.111       .  S
C898        H909   1.110   1_455  S
C898        H910   1.110       .  S
C898        H911   1.107   1_556  S
C900        C901   1.404       .  A
C900        C905   1.506       .  S
C901        C902   1.404       .  A
C901        H906   1.084       .  S
C902        C903   1.416   1_655  A
C903        C904   1.405       .  A
C903        C907   1.507       .  S
C904        H908   1.085       .  S
C905        H915   1.111       .  S
C905        H916   1.110       .  S
C905        H917   1.110       .  S
C907        H918   1.108       .  S
C907        H919   1.110       .  S
C907        H920   1.111       .  S
C921        C922   1.400       .  A
C921        C926   1.403       .  A
C921        H931   1.084       .  S
C922        C923   1.411       .  A
C922        C927   1.483       .  S
C923        C924   1.405       .  A
C923        C928   1.506       .  S
C924        C925   1.406       .  A
C924        H929   1.084       .  S
C925        C926   1.419       .  A
C926        C930   1.508       .  S
C927        C932   1.410       .  A
C927        C936   1.400       .  A
C928        H944   1.110       .  S
C928        H945   1.110       .  S
C928        H946   1.111       .  S
C930        H941   1.111       .  S
C930        H942   1.110       .  S
C930        H943   1.106       .  S
C932        C933   1.405       .  A
C932        C937   1.506       .  S
C933        C934   1.406       .  A
C933        H938   1.084       .  S
C934        C935   1.419       .  A
C935        C936   1.404       .  A
C935        C939   1.508       .  S
C936        H940   1.085       .  S
C937        H947   1.111       .  S
C937        H948   1.110       .  S
C937        H949   1.110       .  S
C939        H950   1.110       .  S
C939        H951   1.105       .  S
C939        H952   1.111       .  S
C953        C954   1.401       .  A
C953        C958   1.405       .  A
C953        H963   1.084       .  S
C954        C955   1.410       .  A
C954        C959   1.479       .  S
C955        C956   1.403       .  A
C955        C960   1.508       .  S
C956        C957   1.403       .  A
C956        H961   1.084       .  S
C957        C958   1.415       .  A
C958        C962   1.507       .  S
C959        C964   1.411       .  A
C959        C968   1.401       .  A
C960        H976   1.110       .  S
C960        H977   1.111       .  S
C960        H978   1.111       .  S
C962        H973   1.111       .  S
C962        H974   1.110       .  S
C962        H975   1.108       .  S
C964        C965   1.403       .  A
C964        C969   1.506       .  S
C965        C966   1.402       .  A
C965        H970   1.084       .  S
C966        C967   1.411       .  A
C967        C968   1.402       .  A
C967        C971   1.505       .  S
C968        H972   1.084       .  S
C969        H979   1.111       .  S
C969        H980   1.110       .  S
C969        H981   1.110       .  S
C971        H982   1.110       .  S
C971        H983   1.107       .  S
C971        H984   1.111       .  S
C985        C986   1.401       .  A
C985        C990   1.405       .  A
C985        H995   1.084       .  S
C986        C987   1.411       .  A
C986        C991   1.483       .  S
C987        C988   1.405       .  A
C987        C992   1.506       .  S
C988        C989   1.405       .  A
C988        H993   1.084       .  S
C989        C990   1.415       .  A
C990        C994   1.507       .  S
C991        C996   1.411       .  A
C991       C1000   1.400       .  A
C992       H1008   1.110       .  S
C992       H1009   1.110       .  S
C992       H1010   1.111       .  S
C994       H1005   1.111       .  S
C994       H1006   1.108       .  S
C994       H1007   1.110       .  S
C996        C997   1.405       .  A
C996       C1001   1.506       .  S
C997        C998   1.405       .  A
C997       H1002   1.084       .  S
C998        C999   1.419       .  A
C999       C1000   1.404       .  A
C999       C1003   1.508       .  S
C1000      H1004   1.084       .  S
C1001      H1011   1.111       .  S
C1001      H1012   1.110       .  S
C1001      H1013   1.110       .  S
C1003      H1014   1.110       .  S
C1003      H1015   1.106       .  S
C1003      H1016   1.111       .  S
C1017      C1018   1.400       .  A
C1017      C1022   1.405       .  A
C1017      H1027   1.084       .  S
C1018      C1019   1.411   1_545  A
C1018      C1023   1.482       .  S
C1019      C1020   1.405       .  A
C1019      C1024   1.506       .  S
C1020      C1021   1.405   1_565  A
C1020      H1025   1.084       .  S
C1021      C1022   1.417       .  A
C1022      C1026   1.507       .  S
C1023      C1028   1.411       .  A
C1023      C1032   1.401       .  A
C1024      H1040   1.110       .  S
C1024      H1041   1.109       .  S
C1024      H1042   1.111       .  S
C1026      H1037   1.111       .  S
C1026      H1038   1.111       .  S
C1026      H1039   1.107       .  S
C1028      C1029   1.404       .  A
C1028      C1033   1.506       .  S
C1029      C1030   1.404       .  A
C1029      H1034   1.084   1_455  S
C1030      C1031   1.415       .  A
C1031      C1032   1.405       .  A
C1031      C1035   1.507   1_545  S
C1032      H1036   1.084   1_545  S
C1033      H1043   1.111   1_455  S
C1033      H1044   1.110       .  S
C1033      H1045   1.110       .  S
C1035      H1046   1.109   1_565  S
C1035      H1047   1.110       .  S
C1035      H1048   1.111       .  S
C1049      C1050   1.402       .  A
C1049      C1054   1.405       .  A
C1049      H1059   1.085       .  S
C1050      C1051   1.413       .  A
C1050      C1055   1.488       .  S
C1051      C1052   1.406       .  A
C1051      C1056   1.506       .  S
C1052      C1053   1.404       .  A
C1052      H1057   1.084       .  S
C1053      C1054   1.418       .  A
C1054      C1058   1.508       .  S
C1055      C1060   1.412       .  A
C1055      C1064   1.402       .  A
C1056      H1072   1.109       .  S
C1056      H1073   1.110       .  S
C1056      H1074   1.111       .  S
C1058      H1069   1.110       .  S
C1058      H1070   1.111       .  S
C1058      H1071   1.107       .  S
C1060      C1061   1.405       .  A
C1060      C1065   1.507       .  S
C1061      C1062   1.404       .  A
C1061      H1066   1.084       .  S
C1062      C1063   1.418       .  A
C1063      C1064   1.405       .  A
C1063      C1067   1.508       .  S
C1064      H1068   1.084       .  S
C1065      H1075   1.111       .  S
C1065      H1076   1.109       .  S
C1065      H1077   1.110       .  S
C1067      H1078   1.111       .  S
C1067      H1079   1.106       .  S
C1067      H1080   1.110       .  S
C1081      C1082   1.403       .  A
C1081      C1086   1.405       .  A
C1081      H1091   1.084       .  S
C1082      C1083   1.411       .  A
C1082      C1087   1.484       .  S
C1083      C1084   1.403       .  A
C1083      C1088   1.507       .  S
C1084      C1085   1.403       .  A
C1084      H1089   1.084       .  S
C1085      C1086   1.416       .  A
C1086      C1090   1.508       .  S
C1087      C1092   1.410       .  A
C1087      C1096   1.401       .  A
C1088      H1104   1.109       .  S
C1088      H1105   1.110       .  S
C1088      H1106   1.111       .  S
C1090      H1101   1.110       .  S
C1090      H1102   1.110       .  S
C1090      H1103   1.107       .  S
C1092      C1093   1.404       .  A
C1092      C1097   1.507       .  S
C1093      C1094   1.406       .  A
C1093      H1098   1.084       .  S
C1094      C1095   1.419       .  A
C1095      C1096   1.403       .  A
C1095      C1099   1.508       .  S
C1096      H1100   1.084       .  S
C1097      H1107   1.111       .  S
C1097      H1108   1.109       .  S
C1097      H1109   1.110       .  S
C1099      H1110   1.111       .  S
C1099      H1111   1.105       .  S
C1099      H1112   1.110       .  S
C1113      C1114   1.401       .  A
C1113      C1118   1.405       .  A
C1113      H1123   1.085       .  S
C1114      C1115   1.411       .  A
C1114      C1119   1.484       .  S
C1115      C1116   1.405       .  A
C1115      C1120   1.506       .  S
C1116      C1117   1.404       .  A
C1116      H1121   1.084       .  S
C1117      C1118   1.416       .  A
C1118      C1122   1.507       .  S
C1119      C1124   1.412       .  A
C1119      C1128   1.402       .  A
C1120      H1136   1.110       .  S
C1120      H1137   1.110       .  S
C1120      H1138   1.111       .  S
C1122      H1133   1.111       .  S
C1122      H1134   1.107       .  S
C1122      H1135   1.110       .  S
C1124      C1125   1.403       .  A
C1124      C1129   1.507       .  S
C1125      C1126   1.402       .  A
C1125      H1130   1.084       .  S
C1126      C1127   1.414       .  A
C1127      C1128   1.406       .  A
C1127      C1131   1.507       .  S
C1128      H1132   1.084       .  S
C1129      H1139   1.111       .  S
C1129      H1140   1.110       .  S
C1129      H1141   1.110       .  S
C1131      H1142   1.109       .  S
C1131      H1143   1.111       .  S
C1131      H1144   1.111       .  S
C1145      C1146   1.402       .  A
C1145      C1150   1.406       .  A
C1145      H1155   1.084       .  S
C1146      C1147   1.412       .  A
C1146      C1151   1.488       .  S
C1147      C1148   1.406       .  A
C1147      C1152   1.508       .  S
C1148      C1149   1.406       .  A
C1148      H1153   1.084       .  S
C1149      C1150   1.416       .  A
C1150      C1154   1.507       .  S
C1151      C1156   1.413       .  A
C1151      C1160   1.403       .  A
C1152      H1168   1.109       .  S
C1152      H1169   1.111       .  S
C1152      H1170   1.111       .  S
C1154      H1165   1.111       .  S
C1154      H1166   1.110       .  S
C1154      H1167   1.108       .  S
C1156      C1157   1.404       .  A
C1156      C1161   1.506       .  S
C1157      C1158   1.402       .  A
C1157      H1162   1.084       .  S
C1158      C1159   1.414       .  A
C1159      C1160   1.404       .  A
C1159      C1163   1.507       .  S
C1160      H1164   1.084       .  S
C1161      H1171   1.111       .  S
C1161      H1172   1.109       .  S
C1161      H1173   1.110       .  S
C1163      H1174   1.110       .  S
C1163      H1175   1.108       .  S
C1163      H1176   1.110       .  S
C1177      C1178   1.401       .  A
C1177      C1182   1.402       .  A
C1177      H1187   1.085       .  S
C1178      C1179   1.413       .  A
C1178      C1183   1.486       .  S
C1179      C1180   1.406       .  A
C1179      C1184   1.506       .  S
C1180      C1181   1.403       .  A
C1180      H1185   1.084       .  S
C1181      C1182   1.416       .  A
C1182      C1186   1.509       .  S
C1183      C1188   1.412       .  A
C1183      C1192   1.401       .  A
C1184      H1200   1.109       .  S
C1184      H1201   1.110       .  S
C1184      H1202   1.111       .  S
C1186      H1197   1.110       .  S
C1186      H1198   1.111       .  S
C1186      H1199   1.107       .  S
C1188      C1189   1.405       .  A
C1188      C1193   1.507       .  S
C1189      C1190   1.406       .  A
C1189      H1194   1.084       .  S
C1190      C1191   1.419       .  A
C1191      C1192   1.404       .  A
C1191      C1195   1.508       .  S
C1192      H1196   1.084       .  S
C1193      H1203   1.111       .  S
C1193      H1204   1.109       .  S
C1193      H1205   1.110       .  S
C1195      H1206   1.111       .  S
C1195      H1207   1.105       .  S
C1195      H1208   1.110       .  S
C1209      C1210   1.401       .  A
C1209      C1214   1.406       .  A
C1209      H1219   1.084       .  S
C1210      C1211   1.410       .  A
C1210      C1215   1.482       .  S
C1211      C1212   1.403       .  A
C1211      C1216   1.506       .  S
C1212      C1213   1.405       .  A
C1212      H1217   1.084       .  S
C1213      C1214   1.416       .  A
C1214      C1218   1.507       .  S
C1215      C1220   1.410       .  A
C1215      C1224   1.401       .  A
C1216      H1232   1.110       .  S
C1216      H1233   1.110       .  S
C1216      H1234   1.111       .  S
C1218      H1229   1.111       .  S
C1218      H1230   1.108       .  S
C1218      H1231   1.110       .  S
C1220      C1221   1.403       .  A
C1220      C1225   1.506       .  S
C1221      C1222   1.404       .  A
C1221      H1226   1.084       .  S
C1222      C1223   1.416       .  A
C1223      C1224   1.405       .  A
C1223      C1227   1.507       .  S
C1224      H1228   1.085       .  S
C1225      H1235   1.111       .  S
C1225      H1236   1.110       .  S
C1225      H1237   1.110       .  S
C1227      H1238   1.107       .  S
C1227      H1239   1.110       .  S
C1227      H1240   1.111       .  S
C1241      C1242   1.401       .  A
C1241      C1246   1.410       .  A
C1241      H1251   1.084       .  S
C1242      C1243   1.408       .  A
C1242      C1247   1.488       .  S
C1243      C1244   1.404       .  A
C1243      C1248   1.507       .  S
C1244      C1245   1.411       .  A
C1244      H1249   1.083       .  S
C1245      C1246   1.423       .  A
C1246      C1250   1.507       .  S
C1247      C1252   1.412       .  A
C1247      C1256   1.401       .  A
C1248      H1264   1.110       .  S
C1248      H1265   1.110       .  S
C1248      H1266   1.111       .  S
C1250      H1261   1.110       .  S
C1250      H1262   1.111       .  S
C1250      H1263   1.110       .  S
C1252      C1253   1.409       .  A
C1252      C1257   1.506       .  S
C1253      C1254   1.406       .  A
C1253      H1258   1.084       .  S
C1254      C1255   1.417       .  A
C1255      C1256   1.404       .  A
C1255      C1259   1.508       .  S
C1256      H1260   1.085       .  S
C1257      H1267   1.111       .  S
C1257      H1268   1.110       .  S
C1257      H1269   1.110       .  S
C1259      H1270   1.110       .  S
C1259      H1271   1.107       .  S
C1259      H1272   1.111       .  S
C1273      C1274   1.402       .  A
C1273      C1278   1.407       .  A
C1273      H1283   1.085       .  S
C1274      C1275   1.409       .  A
C1274      C1279   1.486       .  S
C1275      C1276   1.404       .  A
C1275      C1280   1.506       .  S
C1276      C1277   1.406       .  A
C1276      H1281   1.083       .  S
C1277      C1278   1.419       .  A
C1278      C1282   1.507       .  S
C1279      C1284   1.410       .  A
C1279      C1288   1.401       .  A
C1280      H1296   1.110       .  S
C1280      H1297   1.110       .  S
C1280      H1298   1.111       .  S
C1282      H1293   1.110       .  S
C1282      H1294   1.111       .  S
C1282      H1295   1.107   1_556  S
C1284      C1285   1.406       .  A
C1284      C1289   1.506       .  S
C1285      C1286   1.406       .  A
C1285      H1290   1.084       .  S
C1286      C1287   1.418       .  A
C1287      C1288   1.407       .  A
C1287      C1291   1.507       .  S
C1288      H1292   1.084       .  S
C1289      H1299   1.111       .  S
C1289      H1300   1.110       .  S
C1289      H1301   1.110       .  S
C1291      H1302   1.107       .  S
C1291      H1303   1.110       .  S
C1291      H1304   1.111       .  S
C1305      C1306   1.401       .  A
C1305      C1310   1.405       .  A
C1305      H1315   1.084       .  S
C1306      C1307   1.412       .  A
C1306      C1311   1.487       .  S
C1307      C1308   1.408       .  A
C1307      C1312   1.507       .  S
C1308      C1309   1.406       .  A
C1308      H1313   1.084       .  S
C1309      C1310   1.416       .  A
C1310      C1314   1.507       .  S
C1311      C1316   1.411       .  A
C1311      C1320   1.403       .  A
C1312      H1328   1.110       .  S
C1312      H1329   1.110       .  S
C1312      H1330   1.111       .  S
C1314      H1325   1.110       .  S
C1314      H1326   1.111       .  S
C1314      H1327   1.107       .  S
C1316      C1317   1.405       .  A
C1316      C1321   1.506       .  S
C1317      C1318   1.403       .  A
C1317      H1322   1.084       .  S
C1318      C1319   1.415       .  A
C1319      C1320   1.406       .  A
C1319      C1323   1.507       .  S
C1320      H1324   1.084       .  S
C1321      H1331   1.111       .  S
C1321      H1332   1.110       .  S
C1321      H1333   1.110       .  S
C1323      H1334   1.110   1_554  S
C1323      H1335   1.108   1_554  S
C1323      H1336   1.110       .  S
C1337      C1338   1.400       .  A
C1337      C1342   1.403       .  A
C1337      H1347   1.084       .  S
C1338      C1339   1.411   1_545  A
C1338      C1343   1.481       .  S
C1339      C1340   1.406       .  A
C1339      C1344   1.507       .  S
C1340      C1341   1.406   1_565  A
C1340      H1345   1.084       .  S
C1341      C1342   1.415       .  A
C1342      C1346   1.507       .  S
C1343      C1348   1.411       .  A
C1343      C1352   1.402   1_545  A
C1344      H1360   1.110       .  S
C1344      H1361   1.111       .  S
C1344      H1362   1.111       .  S
C1346      H1357   1.108       .  S
C1346      H1358   1.111       .  S
C1346      H1359   1.110       .  S
C1348      C1349   1.403       .  A
C1348      C1353   1.506       .  S
C1349      C1350   1.402       .  A
C1349      H1354   1.084       .  S
C1350      C1351   1.412   1_545  A
C1351      C1352   1.404       .  A
C1351      C1355   1.505       .  S
C1352      H1356   1.084       .  S
C1353      H1363   1.111       .  S
C1353      H1364   1.110       .  S
C1353      H1365   1.110       .  S
C1355      H1366   1.110       .  S
C1355      H1367   1.106       .  S
C1355      H1368   1.111       .  S
C1369      C1370   1.401       .  A
C1369      C1374   1.404       .  A
C1369      H1379   1.084       .  S
C1370      C1371   1.410       .  A
C1370      C1375   1.482       .  S
C1371      C1372   1.405       .  A
C1371      C1376   1.507       .  S
C1372      C1373   1.405       .  A
C1372      H1377   1.084       .  S
C1373      C1374   1.417       .  A
C1374      C1378   1.508       .  S
C1375      C1380   1.410       .  A
C1375      C1384   1.401       .  A
C1376      H1392   1.110       .  S
C1376      H1393   1.110       .  S
C1376      H1394   1.111       .  S
C1378      H1389   1.111       .  S
C1378      H1390   1.110       .  S
C1378      H1391   1.106       .  S
C1380      C1381   1.404       .  A
C1380      C1385   1.507       .  S
C1381      C1382   1.406       .  A
C1381      H1386   1.084       .  S
C1382      C1383   1.417       .  A
C1383      C1384   1.406       .  A
C1383      C1387   1.506       .  S
C1384      H1388   1.084       .  S
C1385      H1395   1.111       .  S
C1385      H1396   1.110       .  S
C1385      H1397   1.110       .  S
C1387      H1398   1.107       .  S
C1387      H1399   1.110       .  S
C1387      H1400   1.111       .  S
C1401      C1402   1.400       .  A
C1401      C1406   1.405       .  A
C1401      H1411   1.084       .  S
C1402      C1403   1.410   1_545  A
C1402      C1407   1.483       .  S
C1403      C1404   1.405       .  A
C1403      C1408   1.507       .  S
C1404      C1405   1.407   1_565  A
C1404      H1409   1.084       .  S
C1405      C1406   1.420       .  A
C1406      C1410   1.507       .  S
C1407      C1412   1.410       .  A
C1407      C1416   1.402       .  A
C1408      H1424   1.110       .  S
C1408      H1425   1.110       .  S
C1408      H1426   1.111       .  S
C1410      H1421   1.111       .  S
C1410      H1422   1.110       .  S
C1410      H1423   1.106       .  S
C1412      C1413   1.404       .  A
C1412      C1417   1.506   1_545  S
C1413      C1414   1.404       .  A
C1413      H1418   1.084   1_545  S
C1414      C1415   1.415       .  A
C1415      C1416   1.404       .  A
C1415      C1419   1.507       .  S
C1416      H1420   1.085       .  S
C1417      H1427   1.111       .  S
C1417      H1428   1.110   1_565  S
C1417      H1429   1.109       .  S
C1419      H1430   1.110       .  S
C1419      H1431   1.107   1_554  S
C1419      H1432   1.110       .  S
C1433      C1434   1.401       .  A
C1433      C1438   1.405       .  A
C1433      H1443   1.084       .  S
C1434      C1435   1.409       .  A
C1434      C1439   1.481       .  S
C1435      C1436   1.402       .  A
C1435      C1440   1.507       .  S
C1436      C1437   1.406       .  A
C1436      H1441   1.084       .  S
C1437      C1438   1.420       .  A
C1438      C1442   1.508       .  S
C1439      C1444   1.411       .  A
C1439      C1448   1.401       .  A
C1440      H1456   1.110       .  S
C1440      H1457   1.110       .  S
C1440      H1458   1.111       .  S
C1442      H1453   1.111       .  S
C1442      H1454   1.110       .  S
C1442      H1455   1.105       .  S
C1444      C1445   1.404       .  A
C1444      C1449   1.506       .  S
C1445      C1446   1.404       .  A
C1445      H1450   1.084       .  S
C1446      C1447   1.415       .  A
C1447      C1448   1.405       .  A
C1447      C1451   1.507       .  S
C1448      H1452   1.084       .  S
C1449      H1459   1.111       .  S
C1449      H1460   1.110       .  S
C1449      H1461   1.110       .  S
C1451      H1462   1.108       .  S
C1451      H1463   1.110       .  S
C1451      H1464   1.111       .  S
C1465      C1466   1.403       .  A
C1465      C1470   1.403       .  A
C1465      H1475   1.085       .  S
C1466      C1467   1.413       .  A
C1466      C1471   1.486       .  S
C1467      C1468   1.405       .  A
C1467      C1472   1.506       .  S
C1468      C1469   1.403       .  A
C1468      H1473   1.084       .  S
C1469      C1470   1.415       .  A
C1470      C1474   1.507       .  S
C1471      C1476   1.412       .  A
C1471      C1480   1.403       .  A
C1472      H1488   1.109       .  S
C1472      H1489   1.109       .  S
C1472      H1490   1.111       .  S
C1474      H1485   1.110       .  S
C1474      H1486   1.111       .  S
C1474      H1487   1.107       .  S
C1476      C1477   1.402       .  A
C1476      C1481   1.507       .  S
C1477      C1478   1.403       .  A
C1477      H1482   1.082       .  S
C1478      C1479   1.416       .  A
C1479      C1480   1.404       .  A
C1479      C1483   1.507       .  S
C1480      H1484   1.084       .  S
C1481      H1491   1.111       .  S
C1481      H1492   1.109       .  S
C1481      H1493   1.111       .  S
C1483      H1494   1.110       .  S
C1483      H1495   1.107       .  S
C1483      H1496   1.111       .  S
C1497      C1498   1.399       .  A
C1497      C1502   1.402       .  A
C1497      H1507   1.084       .  S
C1498      C1499   1.410       .  A
C1498      C1503   1.478       .  S
C1499      C1500   1.403       .  A
C1499      C1504   1.506       .  S
C1500      C1501   1.405       .  A
C1500      H1505   1.084       .  S
C1501      C1502   1.416       .  A
C1502      C1506   1.508       .  S
C1503      C1508   1.410       .  A
C1503      C1512   1.401       .  A
C1504      H1520   1.110       .  S
C1504      H1521   1.110       .  S
C1504      H1522   1.111       .  S
C1506      H1517   1.111       .  S
C1506      H1518   1.107       .  S
C1506      H1519   1.110       .  S
C1508      C1509   1.401       .  A
C1508      C1513   1.507       .  S
C1509      C1510   1.404       .  A
C1509      H1514   1.084       .  S
C1510      C1511   1.415       .  A
C1511      C1512   1.405       .  A
C1511      C1515   1.506       .  S
C1512      H1516   1.084       .  S
C1513      H1523   1.111       .  S
C1513      H1524   1.110       .  S
C1513      H1525   1.110       .  S
C1515      H1526   1.108       .  S
C1515      H1527   1.110       .  S
C1515      H1528   1.111       .  S
C1529      C1530   1.400       .  A
C1529      C1534   1.402       .  A
C1529      H1539   1.085       .  S
C1530      C1531   1.409       .  A
C1530      C1535   1.477       .  S
C1531      C1532   1.403       .  A
C1531      C1536   1.506       .  S
C1532      C1533   1.404       .  A
C1532      H1537   1.084       .  S
C1533      C1534   1.415       .  A
C1534      C1538   1.508       .  S
C1535      C1540   1.410       .  A
C1535      C1544   1.401       .  A
C1536      H1552   1.110       .  S
C1536      H1553   1.110       .  S
C1536      H1554   1.111       .  S
C1538      H1549   1.111       .  S
C1538      H1550   1.110       .  S
C1538      H1551   1.107       .  S
C1540      C1541   1.401       .  A
C1540      C1545   1.506       .  S
C1541      C1542   1.401       .  A
C1541      H1546   1.084       .  S
C1542      C1543   1.414       .  A
C1543      C1544   1.402       .  A
C1543      C1547   1.507       .  S
C1544      H1548   1.084       .  S
C1545      H1555   1.111       .  S
C1545      H1556   1.110       .  S
C1545      H1557   1.110       .  S
C1547      H1558   1.110       .  S
C1547      H1559   1.108       .  S
C1547      H1560   1.111       .  S
C1561      C1562   1.402       .  A
C1561      C1566   1.405       .  A
C1561      H1571   1.084       .  S
C1562      C1563   1.410       .  A
C1562      C1567   1.480       .  S
C1563      C1564   1.401       .  A
C1563      C1568   1.507       .  S
C1564      C1565   1.402       .  A
C1564      H1569   1.084       .  S
C1565      C1566   1.416       .  A
C1566      C1570   1.508       .  S
C1567      C1572   1.411       .  A
C1567      C1576   1.400       .  A
C1568      H1584   1.110       .  S
C1568      H1585   1.109       .  S
C1568      H1586   1.111       .  S
C1570      H1581   1.110       .  S
C1570      H1582   1.110       .  S
C1570      H1583   1.107       .  S
C1572      C1573   1.402       .  A
C1572      C1577   1.507       .  S
C1573      C1574   1.404       .  A
C1573      H1578   1.084       .  S
C1574      C1575   1.419       .  A
C1575      C1576   1.405       .  A
C1575      C1579   1.508       .  S
C1576      H1580   1.084       .  S
C1577      H1587   1.111       .  S
C1577      H1588   1.110       .  S
C1577      H1589   1.109       .  S
C1579      H1590   1.110       .  S
C1579      H1591   1.106       .  S
C1579      H1592   1.111       .  S
C1593      C1594   1.398       .  A
C1593      C1598   1.404       .  A
C1593      H1603   1.084       .  S
C1594      C1595   1.408       .  A
C1594      C1599   1.483       .  S
C1595      C1596   1.405       .  A
C1595      C1600   1.506       .  S
C1596      C1597   1.410       .  A
C1596      H1601   1.083       .  S
C1597      C1598   1.425       .  A
C1598      C1602   1.509       .  S
C1599      C1604   1.410       .  A
C1599      C1608   1.401       .  A
C1600      H1616   1.110       .  S
C1600      H1617   1.110       .  S
C1600      H1618   1.111       .  S
C1602      H1613   1.110       .  S
C1602      H1614   1.111       .  S
C1602      H1615   1.110       .  S
C1604      C1605   1.403       .  A
C1604      C1609   1.507       .  S
C1605      C1606   1.405       .  A
C1605      H1610   1.084       .  S
C1606      C1607   1.420       .  A
C1607      C1608   1.404       .  A
C1607      C1611   1.508       .  S
C1608      H1612   1.085       .  S
C1609      H1619   1.111       .  S
C1609      H1620   1.110       .  S
C1609      H1621   1.110       .  S
C1611      H1622   1.111       .  S
C1611      H1623   1.105       .  S
C1611      H1624   1.110       .  S
C1625      C1626   1.399       .  A
C1625      C1630   1.404       .  A
C1625      H1635   1.084       .  S
C1626      C1627   1.409       .  A
C1626      C1631   1.480       .  S
C1627      C1628   1.402       .  A
C1627      C1632   1.507       .  S
C1628      C1629   1.408       .  A
C1628      H1633   1.084       .  S
C1629      C1630   1.423       .  A
C1630      C1634   1.508       .  S
C1631      C1636   1.411       .  A
C1631      C1640   1.401       .  A
C1632      H1648   1.110       .  S
C1632      H1649   1.110       .  S
C1632      H1650   1.111       .  S
C1634      H1645   1.111       .  S
C1634      H1646   1.110       .  S
C1634      H1647   1.111       .  S
C1636      C1637   1.403       .  A
C1636      C1641   1.506       .  S
C1637      C1638   1.403       .  A
C1637      H1642   1.084       .  S
C1638      C1639   1.415       .  A
C1639      C1640   1.403       .  A
C1639      C1643   1.507       .  S
C1640      H1644   1.084       .  S
C1641      H1651   1.111       .  S
C1641      H1652   1.110       .  S
C1641      H1653   1.110       .  S
C1643      H1654   1.111       .  S
C1643      H1655   1.110       .  S
C1643      H1656   1.108       .  S
C1657      C1658   1.401       .  A
C1657      C1662   1.405       .  A
C1657      H1667   1.084       .  S
C1658      C1659   1.411       .  A
C1658      C1663   1.484       .  S
C1659      C1660   1.406       .  A
C1659      C1664   1.506       .  S
C1660      C1661   1.405       .  A
C1660      H1665   1.084       .  S
C1661      C1662   1.416       .  A
C1662      C1666   1.507       .  S
C1663      C1668   1.410       .  A
C1663      C1672   1.402       .  A
C1664      H1680   1.110       .  S
C1664      H1681   1.110       .  S
C1664      H1682   1.111       .  S
C1666      H1677   1.111       .  S
C1666      H1678   1.107       .  S
C1666      H1679   1.110       .  S
C1668      C1669   1.404       .  A
C1668      C1673   1.506       .  S
C1669      C1670   1.404       .  A
C1669      H1674   1.084       .  S
C1670      C1671   1.418       .  A
C1671      C1672   1.406       .  A
C1671      C1675   1.507       .  S
C1672      H1676   1.084       .  S
C1673      H1683   1.111       .  S
C1673      H1684   1.110       .  S
C1673      H1685   1.110       .  S
C1675      H1686   1.110       .  S
C1675      H1687   1.106       .  S
C1675      H1688   1.111       .  S
C1689      C1690   1.401       .  A
C1689      C1694   1.405       .  A
C1689      H1699   1.085       .  S
C1690      C1691   1.409   1_545  A
C1690      C1695   1.483       .  S
C1691      C1692   1.405       .  A
C1691      C1696   1.507       .  S
C1692      C1693   1.407   1_565  A
C1692      H1697   1.084       .  S
C1693      C1694   1.420       .  A
C1694      C1698   1.508       .  S
C1695      C1700   1.411   1_545  A
C1695      C1704   1.401       .  A
C1696      H1712   1.110       .  S
C1696      H1713   1.109       .  S
C1696      H1714   1.111       .  S
C1698      H1709   1.111       .  S
C1698      H1710   1.110       .  S
C1698      H1711   1.105       .  S
C1700      C1701   1.405       .  A
C1700      C1705   1.506       .  S
C1701      C1702   1.405   1_565  A
C1701      H1706   1.083       .  S
C1702      C1703   1.416       .  A
C1703      C1704   1.404       .  A
C1703      C1707   1.507       .  S
C1704      H1708   1.084       .  S
C1705      H1715   1.111       .  S
C1705      H1716   1.110   1_565  S
C1705      H1717   1.109       .  S
C1707      H1718   1.111       .  S
C1707      H1719   1.106       .  S
C1707      H1720   1.110       .  S
C1721      C1722   1.401       .  A
C1721      C1726   1.403       .  A
C1721      H1731   1.084       .  S
C1722      C1723   1.410       .  A
C1722      C1727   1.477       .  S
C1723      C1724   1.402       .  A
C1723      C1728   1.508       .  S
C1724      C1725   1.404       .  A
C1724      H1729   1.084       .  S
C1725      C1726   1.415       .  A
C1726      C1730   1.508       .  S
C1727      C1732   1.411       .  A
C1727      C1736   1.400       .  A
C1728      H1744   1.110       .  S
C1728      H1745   1.108       .  S
C1728      H1746   1.111       .  S
C1730      H1741   1.110       .  S
C1730      H1742   1.110       .  S
C1730      H1743   1.106       .  S
C1732      C1733   1.402       .  A
C1732      C1737   1.508       .  S
C1733      C1734   1.404       .  A
C1733      H1738   1.084       .  S
C1734      C1735   1.417       .  A
C1735      C1736   1.403       .  A
C1735      C1739   1.507       .  S
C1736      H1740   1.084       .  S
C1737      H1747   1.111       .  S
C1737      H1748   1.110       .  S
C1737      H1749   1.108       .  S
C1739      H1750   1.110       .  S
C1739      H1751   1.106       .  S
C1739      H1752   1.111       .  S
