geometry optimzed in LAMMPS
_audit_creation_date              2020-11-30 
_audit_creation_method            'lammps2cif' 
_symmetry_space_group_name_H-M    'P1' 
_symmetry_Int_Tables_number       1 
_symmetry_cell_setting            triclinic 
loop_ 
_symmetry_equiv_pos_as_xyz 
  x,y,z 
_cell_length_a                    46.33385042 
_cell_length_b                    47.41268809854486 
_cell_length_c                    47.23766714417113 
_cell_angle_alpha                 89.66516996064631 
_cell_angle_beta                  89.63389954456022 
_cell_angle_gamma                 90.13521996103434 
loop_ 
_atom_site_label 
_atom_site_type_symbol 
_atom_site_fract_x 
_atom_site_fract_y 
_atom_site_fract_z 
_atom_site_charge 
O1          O  0.04894270  0.00065805  0.27207610    -0.89300
C2          C  0.50010617  0.43309423  0.25141460     0.86700
Mg3        Mg  0.03352544  0.03282273  0.29988943     1.58100
O4          O  0.00823564  0.48497227  0.19798001    -0.89100
O5          O  0.06755790  0.49633725  0.22979491    -0.76400
C6          C  0.40407372  0.06924252  0.25206950     0.91700
O7          O  0.00153485  0.46883662  0.31063438    -0.76200
O8          O  0.41677797  0.06652500  0.27585481    -0.83700
Mg9        Mg  0.04391180  0.45805759  0.28745412     1.58000
C10         C  0.43440925  0.00937271  0.15323478     0.91700
O11         O  0.08609017  0.44187749  0.26869097    -0.82000
H12         H  0.03313065  0.00826053  0.17219569    -0.07300
C13         C  0.43274175  0.49062039  0.24427115     0.86600
O14         O  0.02168139  0.06171541  0.26276488    -0.76500
O15         O  0.02160462  0.44835736  0.24886583    -0.89300
O16         O  0.44947945  0.48783482  0.15944297    -0.82100
C17         C  0.50441057  0.41681599  0.16753478     0.91800
C18         C  0.09577082  0.43013652  0.24640624     0.91600
Mg19       Mg  0.45624068  0.04061612  0.21104264     1.58000
O20         O  0.41382033  0.05804123  0.22944357    -0.82000
O21         O  0.49878607  0.02924249  0.18852120    -0.76200
O22         O  0.02673424  0.42145403  0.18259316    -0.82100
O23         O  0.06877014  0.46831925  0.32784433    -0.83800
O24         O  0.47269003  0.07605562  0.31700265    -0.82100
C25         C  0.01406119  0.00724675  0.18547139     0.86100
O26         O  0.47804472  0.05000947  0.25004495    -0.89200
O27         O  0.45062967  0.49796597  0.22622649    -0.89400
O28         O  0.43191202  0.00198665  0.26847612    -0.76400
Mg29       Mg  0.04432660  0.45877268  0.20953403     1.58000
O30         O  0.48156808  0.43131012  0.17018377    -0.83800
H31         H  0.08120694  0.02528969  0.25824430    -0.07500
O32         O  0.49144752  0.01283693  0.30067655    -0.89100
H33         H  0.46703474  0.48959948  0.32696994    -0.07300
H34         H  0.99936415  0.08224489  0.23217626    -0.07500
C35         C  0.48595800  0.49065829  0.31349600     0.86000
C36         C  0.06666181  0.00801317  0.25386252     0.86600
C37         C  0.99934366  0.06557219  0.24788882     0.86700
H38         H  0.41805187  0.47353177  0.23964524    -0.07500
O39         O  0.47769318  0.43697310  0.23663667    -0.76500
Mg40       Mg  0.45520865  0.03918336  0.28919565     1.58000
H41         H  0.49997257  0.41670449  0.26742719    -0.07500
C42         C  0.06692333  0.48918592  0.34461130     0.91700
O43         O  0.01773651  0.06588411  0.32951113    -0.83700
C44         C  0.99482891  0.08020179  0.33249958     0.91700
O45         O  0.08279224  0.43174786  0.22270791    -0.83700
Mg46       Mg  0.46607747  0.46530901  0.19899740     1.58200
O47         O  0.05083188  0.01019549  0.33913954    -0.82100
O48         O  0.43246754  0.03037587  0.16988723    -0.83800
O49         O  0.00733622  0.26610310  0.04949122    -0.89300
C50         C  0.43218703  0.25797995  0.50445920     0.86700
Mg51       Mg  0.04340245  0.29199734  0.03593792     1.58100
O52         O  0.47715765  0.19840939  0.00189084    -0.89100
O53         O  0.49806133  0.22228890  0.06149485    -0.76400
C54         C  0.06379713  0.25519531  0.40158732     0.91700
O55         O  0.47678145  0.31209047  0.00906018    -0.76200
O56         O  0.06535218  0.27715529  0.41694931    -0.83700
Mg57       Mg  0.46511354  0.28558723  0.04816318     1.58000
C58         C  0.99432803  0.16200448  0.42294553     0.91700
O59         O  0.44793520  0.26509594  0.08891270    -0.82000
H60         H  0.99893399  0.16796461  0.02182219    -0.07300
C61         C  0.48464582  0.25388709  0.43539596     0.86600
O62         O  0.06672436  0.25376388  0.01717238    -0.76500
O63         O  0.44975563  0.25159203  0.02292833    -0.89300
O64         O  0.47204839  0.16774488  0.43792479    -0.82100
C65         C  0.40239732  0.18064724  0.50156186     0.91800
C66         C  0.43371307  0.24344319  0.09688580     0.91600
Mg67       Mg  0.03285934  0.21283907  0.45037290     1.58000
O68         O  0.04980722  0.23334263  0.40947383    -0.82000
O69         O  0.02114053  0.18673150  0.48972015    -0.76200
O70         O  0.41241702  0.19276832  0.02344794    -0.82100
O71         O  0.48078735  0.32084896  0.07502685    -0.83800
O72         O  0.08552660  0.30730360  0.47488212    -0.82100
C73         C  0.99872388  0.18346463  0.00494676     0.86100
O74         O  0.04822302  0.24725604  0.47536181    -0.89200
O75         O  0.49067249  0.23223174  0.44878745    -0.89400
O76         O  0.99974845  0.27620407  0.43715710    -0.76400
Mg77       Mg  0.45532294  0.20981690  0.04040488     1.58000
O78         O  0.41576160  0.18098039  0.47783708    -0.83800
H79         H  0.03251486  0.24431963  0.07591455    -0.07500
O80         O  0.02069892  0.30048409  0.49667392    -0.89100
H81         H  0.49889006  0.33109160  0.47702863    -0.07300
H82         H  0.08074811  0.22379220  0.98990634    -0.07500
C83         C  0.49913807  0.31545671  0.49377815     0.86000
C84         C  0.01331084  0.24452641  0.06303024     0.86600
C85         C  0.06602317  0.24104682  0.99366036     0.86700
H86         H  0.46545640  0.25410983  0.42248999    -0.07500
O87         O  0.43154896  0.24528049  0.48093001    -0.76500
Mg88       Mg  0.04244796  0.28912358  0.45808683     1.58000
H89         H  0.41764014  0.27541045  0.50806968    -0.07500
C90         C  0.50360953  0.33559868  0.07657923     0.91700
O91         O  0.08187239  0.31839244  0.02066661    -0.83700
C92         C  0.09523959  0.31948239  0.99694722     0.91700
O93         O  0.43204542  0.22147117  0.08157956    -0.83700
Mg94       Mg  0.45454343  0.20671617  0.46252079     1.58200
O95         O  0.02579801  0.33052871  0.06121610    -0.82100
O96         O  0.01724495  0.17672889  0.42405325    -0.83800
O97         O  0.21703984  0.28494467  0.22766510    -0.89300
C98         C  0.30337218  0.29281088  0.24562786     0.86700
Mg99       Mg  0.18435706  0.27772293  0.25943436     1.58100
O100        O  0.28255710  0.22956003  0.21279696    -0.89100
O101        O  0.23330637  0.26843927  0.18751091    -0.76400
C102        C  0.23794747  0.17274429  0.33571844     0.91700
O103        O  0.24507797  0.31070541  0.28410677    -0.76200
O104        O  0.21990291  0.19281604  0.33808333    -0.83700
Mg105      Mg  0.24643545  0.31898068  0.23606373     1.58000
C106        C  0.31499106  0.15388504  0.24777565     0.91700
O107        O  0.24801976  0.33335697  0.19003727    -0.82000
H108        H  0.26473132  0.20848257  0.18076415    -0.07300
C109        C  0.28911728  0.22809033  0.29896445     0.86600
O110        O  0.18388427  0.23021633  0.24974546    -0.76500
O111        O  0.28193239  0.29025406  0.23044613    -0.89300
O112        O  0.32216582  0.17624830  0.23435428    -0.82100
C113        C  0.35219556  0.24997610  0.18911616     0.91800
C114        C  0.26467667  0.33147065  0.16867195     0.91600
Mg115      Mg  0.25533082  0.18367132  0.26784060     1.58000
O116        O  0.25427859  0.17031972  0.31415363    -0.82000
O117        O  0.25574969  0.19200053  0.21963713    -0.76200
O118        O  0.33312071  0.26916247  0.18604172    -0.82100
O119        O  0.20933981  0.34925400  0.24051683    -0.83800
O120        O  0.16844937  0.23368121  0.31751078    -0.82100
C121        C  0.26784045  0.21000329  0.20336481     0.86100
O122        O  0.21984587  0.21228400  0.27340799    -0.89200
O123        O  0.28485935  0.21765587  0.27542166    -0.89400
O124        O  0.26838078  0.23581807  0.31488286    -0.76400
Mg125      Mg  0.28301134  0.26923902  0.19015179     1.58000
O126        O  0.34944575  0.23049231  0.20752783    -0.83800
H127        H  0.19067961  0.27352003  0.19637307    -0.07500
O128        O  0.21797367  0.27328545  0.29020557    -0.89100
H129        H  0.23443880  0.29463972  0.32272869    -0.07300
H130        H  0.19321447  0.18839597  0.25052693    -0.07500
C131        C  0.23219880  0.29297038  0.30003262     0.86000
C132        C  0.21264158  0.27578371  0.20364898     0.86600
C133        C  0.19874389  0.20926014  0.25788079     0.86700
H134        H  0.31105858  0.23118667  0.30599501    -0.07500
O135        O  0.31836981  0.27157820  0.25282374    -0.76500
Mg136      Mg  0.21857166  0.23417183  0.31317897     1.58000
H137        H  0.30925628  0.31347435  0.25327130    -0.07500
C138        C  0.18588853  0.34778307  0.25444374     0.91700
O139        O  0.15065049  0.27024043  0.29341091    -0.83700
C140        C  0.14824128  0.25129118  0.31244291     0.91700
O141        O  0.28273657  0.31141033  0.16613728    -0.83700
Mg142      Mg  0.31681357  0.22403864  0.24268507     1.58200
O143        O  0.17787030  0.32523599  0.26704379    -0.82100
O144        O  0.29240739  0.15286836  0.26310974    -0.83800
O145        O  0.22925227  0.50023824  0.44895514    -0.89300
C146        C  0.23445816  0.06272052  0.00799028     0.86700
Mg147      Mg  0.20813092  0.46082429  0.45869700     1.58100
O148        O  0.29883486  0.02444836  0.49779572    -0.89100
O149        O  0.27236405  0.01459565  0.43654229    -0.76400
C150        C  0.25719102  0.41935469  0.08393072     0.91700
O151        O  0.18212160  0.01675862  0.49672384    -0.76200
O152        O  0.23389320  0.42017744  0.06982182    -0.83700
Mg153      Mg  0.20511783  0.03821406  0.45921142     1.58000
C154        C  0.34706404  0.49994649  0.06788326     0.91700
O155        O  0.22222017  0.06610780  0.42222173    -0.82000
H156        H  0.33091899  0.51163953  0.47251617    -0.07300
C157        C  0.25112617  0.00124575  0.06616861     0.86600
O158        O  0.25096716  0.43938188  0.46997762    -0.76500
O159        O  0.24066538  0.05093119  0.48549883    -0.89300
O160        O  0.33653405  0.02200446  0.05642089    -0.82100
C161        C  0.31327291  0.09737912  0.00997948     0.91800
C162        C  0.24387077  0.08214132  0.41721528     0.91600
Mg163      Mg  0.29591328  0.46152783  0.03992821     1.58000
O164        O  0.27889399  0.43496274  0.07781499    -0.82000
O165        O  0.31808001  0.48260907  0.00172584    -0.76200
O166        O  0.29821225  0.09137357  0.48840634    -0.82100
O167        O  0.16749524  0.02376620  0.43156735    -0.83800
O168        O  0.20034774  0.40877755  0.01226625    -0.82100
C169        C  0.31670877  0.50675414  0.49012023     0.86100
O170        O  0.25985750  0.44843695  0.01447436    -0.89200
O171        O  0.27231570  0.99959147  0.05030833    -0.89400
O172        O  0.22898685  0.48591211  0.06276069    -0.76400
Mg173      Mg  0.28288933  0.05183725  0.46540868     1.58000
O174        O  0.31567651  0.08036250  0.03074693    -0.83800
H175        H  0.25076706  0.48341590  0.41639591    -0.07500
O176        O  0.20202172  0.47537484  0.00154770    -0.89100
H177        H  0.16896950  0.98774568  0.02582386    -0.07300
H178        H  0.28531117  0.42359006  0.49119672    -0.07500
C179        C  0.18362346  0.99277383  0.00861175     0.86000
C180        C  0.25045044  0.49895521  0.43305259     0.86600
C181        C  0.26602811  0.43635600  0.49214255     0.86700
H182        H  0.25097959  0.01696554  0.08265561    -0.07500
O183        O  0.24987081  0.05990634  0.02996787    -0.76500
Mg184      Mg  0.21764600  0.44835342  0.03468978     1.58000
H185        H  0.21495041  0.07513397  0.00921085    -0.07500
C186        C  0.15511394  0.99976398  0.42967333     0.91700
O187        O  0.18491069  0.41951662  0.46899892    -0.83700
C188        C  0.18577698  0.40287549  0.49024615     0.91700
O189        O  0.26696277  0.08067721  0.43142437    -0.83700
Mg190      Mg  0.29316042  0.03884785  0.04065143     1.58200
O191        O  0.16523612  0.47778296  0.44166386    -0.82100
O192        O  0.33451272  0.47599413  0.06637132    -0.83800
C193        C  0.28771128  0.36276130  0.13196705    -0.14300
C194        C  0.26298948  0.35389343  0.14689664     0.07800
C195        C  0.23668361  0.36778939  0.14208435    -0.14300
C196        C  0.23490361  0.38950014  0.12204471    -0.14300
C197        C  0.25958448  0.39835730  0.10703979     0.07800
C198        C  0.28609332  0.38505501  0.11245834    -0.14300
H199        H  0.30832056  0.35269893  0.13565021     0.11800
H200        H  0.21733975  0.36151648  0.15351096     0.11800
H201        H  0.21420276  0.39932674  0.11819937     0.11800
H202        H  0.30538118  0.39128755  0.10093091     0.11800
C203        C  0.21505456  0.14271389  0.37344831    -0.14300
C204        C  0.23959915  0.15058030  0.35767993     0.07800
C205        C  0.26533006  0.13535672  0.36121376    -0.14300
C206        C  0.26654707  0.11275513  0.38021026    -0.14300
C207        C  0.24185125  0.10441924  0.39545397     0.07800
C208        C  0.21608609  0.11957684  0.39195806    -0.14300
H209        H  0.19491468  0.15397290  0.37091143     0.11800
H210        H  0.28456299  0.14097636  0.34927702     0.11800
H211        H  0.28676690  0.10165672  0.38289275     0.11800
H212        H  0.19696096  0.11392800  0.40403694     0.11800
C213        C  0.35966559  0.15615285  0.48060707    -0.14300
C214        C  0.37544704  0.16402401  0.50454838     0.07800
C215        C  0.36708002  0.15325797  0.03121037    -0.14300
C216        C  0.34521143  0.13295517  0.03347462    -0.14300
C217        C  0.33090000  0.12348758  0.00919082     0.07800
C218        C  0.33738975  0.13633774  0.48295224    -0.14300
H219        H  0.36540113  0.16433993  0.45986454     0.11800
H220        H  0.37876381  0.15903356  0.05010546     0.11800
H221        H  0.34061794  0.12356802  0.05397578     0.11800
H222        H  0.32675153  0.12956507  0.46379864     0.11800
C223        C  0.13714629  0.34490749  0.01873069    -0.14300
C224        C  0.12192101  0.33686263  0.99445357     0.07800
C225        C  0.13075214  0.34791657  0.46803965    -0.14300
C226        C  0.15283997  0.36815128  0.46626594    -0.14300
C227        C  0.16697938  0.37737034  0.49080461     0.07800
C228        C  0.15957380  0.36468380  0.01689427    -0.14300
H229        H  0.13102307  0.33667655  0.03934831     0.11800
H230        H  0.11946053  0.34218418  0.44890290     0.11800
H231        H  0.15795198  0.37748528  0.44585837     0.11800
H232        H  0.16987095  0.37132634  0.03627168     0.11800
C233        C  0.09206149  0.22769736  0.36603682    -0.14300
C234        C  0.08086620  0.25377539  0.37500685     0.07800
C235        C  0.08921481  0.27839893  0.36047633    -0.14300
C236        C  0.10944801  0.27712870  0.33837797    -0.14300
C237        C  0.12237439  0.25133182  0.33099698     0.07800
C238        C  0.11295878  0.22654192  0.34455644    -0.14300
H239        H  0.08614874  0.20835125  0.37693451     0.11800
H240        H  0.08094038  0.29874289  0.36691645     0.11800
H241        H  0.11647589  0.29662082  0.32841861     0.11800
H242        H  0.12257614  0.20641810  0.33930660     0.11800
C243        C  0.40636716  0.27158556  0.13265492    -0.14300
C244        C  0.41671360  0.24521616  0.12354531     0.07800
C245        C  0.40808443  0.22086660  0.13840110    -0.14300
C246        C  0.38873040  0.22277808  0.16123716    -0.14300
C247        C  0.37695679  0.24897916  0.16911550     0.07800
C248        C  0.38639097  0.27340368  0.15490915    -0.14300
H249        H  0.41242233  0.29074083  0.12149126     0.11800
H250        H  0.41564128  0.20029580  0.13184654     0.11800
H251        H  0.38161050  0.20352452  0.17159733     0.11800
H252        H  0.37760521  0.29382196  0.16040199     0.11800
C253        C  0.35917942  0.09129987  0.27243215    -0.14300
C254        C  0.37857400  0.08792298  0.24976512     0.07800
C255        C  0.37505400  0.10462452  0.22530711    -0.17900
C256        C  0.35363037  0.12534126  0.22413075    -0.14300
C257        C  0.33465792  0.12925032  0.24704940     0.07800
C258        C  0.33712549  0.11146568  0.27089888    -0.14300
H259        H  0.36145350  0.07876591  0.29152630     0.11800
H260        H  0.38988657  0.10269503  0.20760943     0.11800
H261        H  0.35238560  0.13882076  0.20558472     0.11800
H262        H  0.32302063  0.11422250  0.28903975     0.11800
C263        C  0.12566332  0.39711363  0.27477675    -0.14300
C264        C  0.12150629  0.41210667  0.24933013     0.07800
C265        C  0.14057102  0.40772650  0.22662057    -0.14300
C266        C  0.16301604  0.38816863  0.22914884    -0.14300
C267        C  0.16609775  0.37207052  0.25407614     0.07800
C268        C  0.14744505  0.37695679  0.27696684    -0.14300
H269        H  0.11106100  0.39988209  0.29253917     0.11800
H270        H  0.13774396  0.41896365  0.20680539     0.11800
H271        H  0.17690395  0.38442783  0.21102872     0.11800
H272        H  0.14922883  0.36463854  0.29626538     0.11800
C273        C  0.10122782  0.46703936  0.37935201    -0.14300
C274        C  0.08586447  0.49072431  0.36985686     0.07800
C275        C  0.09159386  0.51706106  0.38238389    -0.14300
C276        C  0.11332306  0.01994708  0.40263180    -0.14300
C277        C  0.12942880  0.99646085  0.41131847     0.07800
C278        C  0.12254065  0.96982798  0.40006018    -0.14300
H279        H  0.09748226  0.44652609  0.37008280     0.11800
H280        H  0.08035274  0.53584070  0.37542815     0.11800
H281        H  0.11808142  0.04070244  0.41087051     0.11800
H282        H  0.13467334  0.95129021  0.40616196     0.11800
C283        C  0.41133202  0.48225838  0.11391292    -0.14300
C284        C  0.41657276  0.00832699  0.12720135     0.07800
C285        C  0.40142758  0.03216876  0.11778832    -0.14300
C286        C  0.38026504  0.02966021  0.09692468    -0.14300
C287        C  0.37333911  0.50315505  0.08541599     0.07800
C288        C  0.38973560  0.47964332  0.09348508    -0.14300
H289        H  0.42261531  0.46340376  0.12058956     0.11800
H290        H  0.40495894  0.05252237  0.12747599     0.11800
H291        H  0.36804478  0.04824596  0.09115141     0.11800
H292        H  0.38508274  0.45902009  0.08486771     0.11800
C293        C  0.47875849  0.38512163  0.13408077    -0.14300
C294        C  0.50493023  0.39510877  0.14508477     0.07800
C295        C  0.03095304  0.38644713  0.13236231    -0.14300
C296        C  0.03069001  0.36812720  0.10910118    -0.14300
C297        C  0.50440687  0.35794366  0.09839225     0.07800
C298        C  0.47850203  0.36674553  0.11117410    -0.14300
H299        H  0.45831920  0.39155565  0.14320255     0.11800
H300        H  0.05143542  0.39421538  0.14005904     0.11800
H301        H  0.05101584  0.36140992  0.09996277     0.11800
H302        H  0.45786916  0.35918625  0.10363100     0.11800
C303        C  0.46787571  0.11257600  0.36566629    -0.14300
C304        C  0.99403088  0.10115816  0.35574878     0.07800
C305        C  0.01969667  0.10815722  0.36987206    -0.14300
C306        C  0.01943789  0.12681071  0.39258383    -0.14300
C307        C  0.99348678  0.13879593  0.40209638     0.07800
C308        C  0.46759070  0.13111936  0.38875335    -0.14300
H309        H  0.44767282  0.10714555  0.35564417     0.11800
H310        H  0.04020242  0.09943512  0.36318669     0.11800
H311        H  0.03973848  0.13229972  0.40241026     0.11800
H312        H  0.44729564  0.14027854  0.39545220     0.11800
O313        O  0.04894271  0.00065802  0.77207611    -0.89300
C314        C  0.50010622  0.43309417  0.75141457     0.86700
Mg315      Mg  0.03352540  0.03282271  0.79988943     1.58100
O316        O  0.00823568  0.48497228  0.69798004    -0.89100
O317        O  0.06755792  0.49633722  0.72979493    -0.76400
C318        C  0.40407373  0.06924252  0.75206947     0.91700
O319        O  0.00153486  0.46883659  0.81063445    -0.76200
O320        O  0.41677800  0.06652495  0.77585477    -0.83700
Mg321      Mg  0.04391178  0.45805755  0.78745409     1.58000
C322        C  0.43440931  0.00937270  0.65323476     0.91700
O323        O  0.08609012  0.44187742  0.76869091    -0.82000
H324        H  0.03313051  0.00826049  0.67219552    -0.07300
C325        C  0.43274173  0.49062036  0.74427118     0.86600
O326        O  0.02168131  0.06171541  0.76276492    -0.76500
O327        O  0.02160459  0.44835735  0.74886578    -0.89300
O328        O  0.44947941  0.48783476  0.65944293    -0.82100
C329        C  0.50441058  0.41681599  0.66753474     0.91800
C330        C  0.09577082  0.43013647  0.74640618     0.91600
Mg331      Mg  0.45624072  0.04061611  0.71104260     1.58000
O332        O  0.41382029  0.05804119  0.72944352    -0.82000
O333        O  0.49878614  0.02924250  0.68852109    -0.76200
O334        O  0.02673431  0.42145403  0.68259312    -0.82100
O335        O  0.06877020  0.46831922  0.82784427    -0.83800
O336        O  0.47269006  0.07605560  0.81700263    -0.82100
C337        C  0.01406111  0.00724675  0.68547131     0.86100
O338        O  0.47804477  0.05000947  0.75004492    -0.89200
O339        O  0.45062958  0.49796594  0.72622644    -0.89400
O340        O  0.43191215  0.00198665  0.76847614    -0.76400
Mg341      Mg  0.04432664  0.45877266  0.70953401     1.58000
O342        O  0.48156811  0.43131013  0.67018373    -0.83800
H343        H  0.08120692  0.02528971  0.75824426    -0.07500
O344        O  0.49144758  0.01283696  0.80067660    -0.89100
H345        H  0.46703480  0.48959950  0.82697008    -0.07300
H346        H  0.99936415  0.08224482  0.73217622    -0.07500
C347        C  0.48595801  0.49065827  0.81349608     0.86000
C348        C  0.06666181  0.00801316  0.75386252     0.86600
C349        C  0.99934362  0.06557213  0.74788881     0.86700
H350        H  0.41805182  0.47353172  0.73964534    -0.07500
O351        O  0.47769317  0.43697309  0.73663672    -0.76500
Mg352      Mg  0.45520870  0.03918335  0.78919563     1.58000
H353        H  0.49997267  0.41670443  0.76742712    -0.07500
C354        C  0.06692339  0.48918589  0.84461125     0.91700
O355        O  0.01773651  0.06588409  0.82951112    -0.83700
C356        C  0.99482891  0.08020176  0.83249955     0.91700
O357        O  0.08279225  0.43174782  0.72270786    -0.83700
Mg358      Mg  0.46607745  0.46530898  0.69899738     1.58200
O359        O  0.05083191  0.01019550  0.83913947    -0.82100
O360        O  0.43246760  0.03037583  0.66988724    -0.83800
O361        O  0.00733625  0.26610305  0.54949119    -0.89300
C362        C  0.43218698  0.25797995  0.00445917     0.86700
Mg363      Mg  0.04340246  0.29199735  0.53593795     1.58100
O364        O  0.47715760  0.19840936  0.50189083    -0.89100
O365        O  0.49806129  0.22228894  0.56149492    -0.76400
C366        C  0.06379717  0.25519532  0.90158732     0.91700
O367        O  0.47678145  0.31209054  0.50906015    -0.76200
O368        O  0.06535226  0.27715526  0.91694937    -0.83700
Mg369      Mg  0.46511351  0.28558724  0.54816321     1.58000
C370        C  0.99432807  0.16200448  0.92294552     0.91700
O371        O  0.44793514  0.26509594  0.58891272    -0.82000
H372        H  0.99893413  0.16796464  0.52182225    -0.07300
C373        C  0.48464584  0.25388706  0.93539595     0.86600
O374        O  0.06672429  0.25376386  0.51717248    -0.76500
O375        O  0.44975567  0.25159201  0.52292835    -0.89300
O376        O  0.47204838  0.16774485  0.93792481    -0.82100
C377        C  0.40239737  0.18064723  0.00156188     0.91800
C378        C  0.43371302  0.24344318  0.59688576     0.91600
Mg379      Mg  0.03285938  0.21283904  0.95037288     1.58000
O380        O  0.04980728  0.23334262  0.90947378    -0.82000
O381        O  0.02114054  0.18673151  0.98972020    -0.76200
O382        O  0.41241699  0.19276832  0.52344790    -0.82100
O383        O  0.48078737  0.32084891  0.57502695    -0.83800
O384        O  0.08552666  0.30730351  0.97488218    -0.82100
C385        C  0.99872393  0.18346465  0.50494679     0.86100
O386        O  0.04822301  0.24725601  0.97536178    -0.89200
O387        O  0.49067247  0.23223171  0.94878746    -0.89400
O388        O  0.99974839  0.27620406  0.93715713    -0.76400
Mg389      Mg  0.45532293  0.20981688  0.54040487     1.58000
O390        O  0.41576167  0.18098036  0.97783712    -0.83800
H391        H  0.03251482  0.24431967  0.57591464    -0.07500
O392        O  0.02069895  0.30048409  0.99667389    -0.89100
H393        H  0.49888991  0.33109151  0.97702857    -0.07300
H394        H  0.08074803  0.22379217  0.48990648    -0.07500
C395        C  0.49913801  0.31545663  0.99377812     0.86000
C396        C  0.01331086  0.24452639  0.56303026     0.86600
C397        C  0.06602313  0.24104682  0.49366044     0.86700
H398        H  0.46545650  0.25410981  0.92248988    -0.07500
O399        O  0.43154887  0.24528046  0.98093000    -0.76500
Mg400      Mg  0.04244799  0.28912354  0.95808684     1.58000
H401        H  0.41764009  0.27541048  0.00806963    -0.07500
C402        C  0.50360952  0.33559868  0.57657923     0.91700
O403        O  0.08187240  0.31839239  0.52066659    -0.83700
C404        C  0.09523956  0.31948241  0.49694719     0.91700
O405        O  0.43204545  0.22147115  0.58157952    -0.83700
Mg406      Mg  0.45454343  0.20671615  0.96252080     1.58200
O407        O  0.02579797  0.33052879  0.56121604    -0.82100
O408        O  0.01724498  0.17672893  0.92405322    -0.83800
O409        O  0.21703995  0.28494462  0.72766511    -0.89300
C410        C  0.30337228  0.29281087  0.74562784     0.86700
Mg411      Mg  0.18435714  0.27772289  0.75943438     1.58100
O412        O  0.28255712  0.22956009  0.71279693    -0.89100
O413        O  0.23330644  0.26843929  0.68751088    -0.76400
C414        C  0.23794749  0.17274434  0.83571851     0.91700
O415        O  0.24507804  0.31070541  0.78410681    -0.76200
O416        O  0.21990292  0.19281608  0.83808340    -0.83700
Mg417      Mg  0.24643552  0.31898069  0.73606374     1.58000
C418        C  0.31499103  0.15388505  0.74777564     0.91700
O419        O  0.24801980  0.33335699  0.69003728    -0.82000
H420        H  0.26473125  0.20848259  0.68076419    -0.07300
C421        C  0.28911735  0.22809034  0.79896454     0.86600
O422        O  0.18388420  0.23021629  0.74974542    -0.76500
O423        O  0.28193248  0.29025405  0.73044611    -0.89300
O424        O  0.32216584  0.17624834  0.73435438    -0.82100
C425        C  0.35219564  0.24997607  0.68911611     0.91800
C426        C  0.26467673  0.33147067  0.66867196     0.91600
Mg427      Mg  0.25533085  0.18367138  0.76784066     1.58000
O428        O  0.25427869  0.17031982  0.81415373    -0.82000
O429        O  0.25574973  0.19200059  0.71963723    -0.76200
O430        O  0.33312078  0.26916243  0.68604162    -0.82100
O431        O  0.20933990  0.34925403  0.74051683    -0.83800
O432        O  0.16844934  0.23368117  0.81751086    -0.82100
C433        C  0.26784042  0.21000336  0.70336485     0.86100
O434        O  0.21984580  0.21228401  0.77340800    -0.89200
O435        O  0.28485942  0.21765594  0.77542171    -0.89400
O436        O  0.26838085  0.23581807  0.81488296    -0.76400
Mg437      Mg  0.28301140  0.26923904  0.69015174     1.58000
O438        O  0.34944580  0.23049228  0.70752778    -0.83800
H439        H  0.19067970  0.27351998  0.69637311    -0.07500
O440        O  0.21797373  0.27328545  0.79020564    -0.89100
H441        H  0.23443892  0.29463970  0.82272875    -0.07300
H442        H  0.19321434  0.18839593  0.75052701    -0.07500
C443        C  0.23219890  0.29297037  0.80003267     0.86000
C444        C  0.21264166  0.27578368  0.70364899     0.86600
C445        C  0.19874382  0.20926012  0.75788080     0.86700
H446        H  0.31105864  0.23118660  0.80599515    -0.07500
O447        O  0.31836990  0.27157820  0.75282375    -0.76500
Mg448      Mg  0.21857166  0.23417184  0.81317904     1.58000
H449        H  0.30925642  0.31347434  0.75327121    -0.07500
C450        C  0.18588860  0.34778306  0.75444371     0.91700
O451        O  0.15065057  0.27024043  0.79341098    -0.83700
C452        C  0.14824130  0.25129119  0.81244298     0.91700
O453        O  0.28273664  0.31141035  0.66613729    -0.83700
Mg454      Mg  0.31681361  0.22403868  0.74268508     1.58200
O455        O  0.17787036  0.32523595  0.76704371    -0.82100
O456        O  0.29240736  0.15286837  0.76310973    -0.83800
O457        O  0.22925220  0.50023821  0.94895515    -0.89300
C458        C  0.23445809  0.06272059  0.50799030     0.86700
Mg459      Mg  0.20813090  0.46082426  0.95869702     1.58100
O460        O  0.29883488  0.02444835  0.99779572    -0.89100
O461        O  0.27236399  0.01459561  0.93654230    -0.76400
C462        C  0.25719103  0.41935465  0.58393071     0.91700
O463        O  0.18212169  0.01675862  0.99672393    -0.76200
O464        O  0.23389321  0.42017744  0.56982178    -0.83700
Mg465      Mg  0.20511789  0.03821404  0.95921147     1.58000
C466        C  0.34706406  0.49994646  0.56788324     0.91700
O467        O  0.22222016  0.06610778  0.92222178    -0.82000
H468        H  0.33091894  0.51163954  0.97251622    -0.07300
C469        C  0.25112612  0.00124578  0.56616864     0.86600
O470        O  0.25096716  0.43938187  0.96997763    -0.76500
O471        O  0.24066544  0.05093116  0.98549881    -0.89300
O472        O  0.33653403  0.02200445  0.55642094    -0.82100
C473        C  0.31327294  0.09737909  0.50997951     0.91800
C474        C  0.24387075  0.08214130  0.91721529     0.91600
Mg475      Mg  0.29591329  0.46152779  0.53992819     1.58000
O476        O  0.27889401  0.43496270  0.57781502    -0.82000
O477        O  0.31807997  0.48260904  0.50172574    -0.76200
O478        O  0.29821222  0.09137356  0.98840632    -0.82100
O479        O  0.16749530  0.02376621  0.93156742    -0.83800
O480        O  0.20034771  0.40877755  0.51226621    -0.82100
C481        C  0.31670874  0.50675414  0.99012028     0.86100
O482        O  0.25985748  0.44843695  0.51447437    -0.89200
O483        O  0.27231564  0.99959145  0.55030834    -0.89400
O484        O  0.22898681  0.48591209  0.56276066    -0.76400
Mg485      Mg  0.28288936  0.05183721  0.96540865     1.58000
O486        O  0.31567650  0.08036247  0.53074697    -0.83800
H487        H  0.25076691  0.48341590  0.91639584    -0.07500
O488        O  0.20202177  0.47537490  0.50154764    -0.89100
H489        H  0.16896936  0.98774568  0.52582376    -0.07300
H490        H  0.28531116  0.42359002  0.99119677    -0.07500
C491        C  0.18362336  0.99277383  0.50861165     0.86000
C492        C  0.25045034  0.49895521  0.93305260     0.86600
C493        C  0.26602812  0.43635598  0.99214256     0.86700
H494        H  0.25097960  0.01696553  0.58265562    -0.07500
O495        O  0.24987075  0.05990640  0.52996789    -0.76500
Mg496      Mg  0.21764597  0.44835344  0.53468974     1.58000
H497        H  0.21495038  0.07513403  0.50921084    -0.07500
C498        C  0.15511397  0.99976400  0.92967339     0.91700
O499        O  0.18491074  0.41951660  0.96899893    -0.83700
C500        C  0.18577704  0.40287547  0.99024617     0.91700
O501        O  0.26696278  0.08067718  0.93142432    -0.83700
Mg502      Mg  0.29316038  0.03884784  0.54065145     1.58200
O503        O  0.16523613  0.47778292  0.94166392    -0.82100
O504        O  0.33451278  0.47599408  0.56637124    -0.83800
C505        C  0.28771133  0.36276137  0.63196710    -0.14300
C506        C  0.26298954  0.35389343  0.64689665     0.07800
C507        C  0.23668363  0.36778931  0.64208432    -0.14300
C508        C  0.23490360  0.38949999  0.62204463    -0.14300
C509        C  0.25958446  0.39835724  0.60703977     0.07800
C510        C  0.28609335  0.38505508  0.61245844    -0.14300
H511        H  0.30832064  0.35269904  0.63565027     0.11800
H512        H  0.21733978  0.36151633  0.65351090     0.11800
H513        H  0.21420269  0.39932651  0.61819924     0.11800
H514        H  0.30538123  0.39128773  0.60093109     0.11800
C515        C  0.21505453  0.14271394  0.87344840    -0.14300
C516        C  0.23959910  0.15058030  0.85767995     0.07800
C517        C  0.26532996  0.13535664  0.86121369    -0.14300
C518        C  0.26654698  0.11275508  0.88021020    -0.14300
C519        C  0.24185119  0.10441923  0.89545398     0.07800
C520        C  0.21608604  0.11957686  0.89195811    -0.14300
H521        H  0.19491465  0.15397300  0.87091158     0.11800
H522        H  0.28456288  0.14097625  0.84927692     0.11800
H523        H  0.28676681  0.10165666  0.88289265     0.11800
H524        H  0.19696088  0.11392799  0.90403700     0.11800
C525        C  0.35966562  0.15615284  0.98060705    -0.14300
C526        C  0.37544708  0.16402400  0.00454838     0.07800
C527        C  0.36707995  0.15325805  0.53121041    -0.14300
C528        C  0.34521141  0.13295521  0.53347466    -0.14300
C529        C  0.33090005  0.12348754  0.50919087     0.07800
C530        C  0.33738973  0.13633777  0.98295222    -0.14300
H531        H  0.36540118  0.16433987  0.95986453     0.11800
H532        H  0.37876369  0.15903371  0.55010548     0.11800
H533        H  0.34061791  0.12356808  0.55397587     0.11800
H534        H  0.32675150  0.12956512  0.96379858     0.11800
C535        C  0.13714632  0.34490745  0.51873069    -0.14300
C536        C  0.12192098  0.33686265  0.49445357     0.07800
C537        C  0.13075221  0.34791651  0.96803962    -0.14300
C538        C  0.15284006  0.36815124  0.96626592    -0.14300
C539        C  0.16697943  0.37737032  0.99080460     0.07800
C540        C  0.15957383  0.36468376  0.51689427    -0.14300
H541        H  0.13102315  0.33667645  0.53934830     0.11800
H542        H  0.11946062  0.34218411  0.94890289     0.11800
H543        H  0.15795208  0.37748524  0.94585834     0.11800
H544        H  0.16987106  0.37132624  0.53627168     0.11800
C545        C  0.09206153  0.22769745  0.86603687    -0.14300
C546        C  0.08086624  0.25377548  0.87500687     0.07800
C547        C  0.08921488  0.27839904  0.86047639    -0.14300
C548        C  0.10944810  0.27712879  0.83837805    -0.14300
C549        C  0.12237441  0.25133188  0.83099703     0.07800
C550        C  0.11295880  0.22654200  0.84455651    -0.14300
H551        H  0.08614876  0.20835137  0.87693456     0.11800
H552        H  0.08094047  0.29874302  0.86691652     0.11800
H553        H  0.11647601  0.29662090  0.82841870     0.11800
H554        H  0.12257612  0.20641816  0.83930670     0.11800
C555        C  0.40636722  0.27158556  0.63265496    -0.14300
C556        C  0.41671352  0.24521614  0.62354525     0.07800
C557        C  0.40808437  0.22086656  0.63840102    -0.14300
C558        C  0.38873048  0.22277807  0.66123717    -0.14300
C559        C  0.37695690  0.24897915  0.66911553     0.07800
C560        C  0.38639108  0.27340368  0.65490923    -0.14300
H561        H  0.41242245  0.29074085  0.62149137     0.11800
H562        H  0.41564115  0.20029578  0.63184643     0.11800
H563        H  0.38161062  0.20352450  0.67159736     0.11800
H564        H  0.37760534  0.29382195  0.66040211     0.11800
C565        C  0.35917952  0.09130000  0.77243219    -0.14300
C566        C  0.37857406  0.08792307  0.74976513     0.07800
C567        C  0.37505400  0.10462457  0.72530711    -0.17900
C568        C  0.35363034  0.12534127  0.72413071    -0.14300
C569        C  0.33465789  0.12925033  0.74704937     0.07800
C570        C  0.33712553  0.11146576  0.77089889    -0.14300
H571        H  0.36145363  0.07876605  0.79152632     0.11800
H572        H  0.38988655  0.10269505  0.70760937     0.11800
H573        H  0.35238552  0.13882071  0.70558469     0.11800
H574        H  0.32302064  0.11422258  0.78903974     0.11800
C575        C  0.12566336  0.39711359  0.77477670    -0.14300
C576        C  0.12150631  0.41210663  0.74933008     0.07800
C577        C  0.14057108  0.40772646  0.72662055    -0.14300
C578        C  0.16301612  0.38816862  0.72914882    -0.14300
C579        C  0.16609782  0.37207051  0.75407613     0.07800
C580        C  0.14744512  0.37695680  0.77696682    -0.14300
H581        H  0.11106101  0.39988204  0.79253913     0.11800
H582        H  0.13774404  0.41896359  0.70680532     0.11800
H583        H  0.17690403  0.38442782  0.71102874     0.11800
H584        H  0.14922895  0.36463859  0.79626540     0.11800
C585        C  0.10122780  0.46703932  0.87935208    -0.14300
C586        C  0.08586450  0.49072428  0.86985686     0.07800
C587        C  0.09159395  0.51706104  0.88238385    -0.14300
C588        C  0.11332302  0.01994709  0.90263182    -0.14300
C589        C  0.12942879  0.99646088  0.91131853     0.07800
C590        C  0.12254064  0.96982801  0.90006022    -0.14300
H591        H  0.09748220  0.44652605  0.87008291     0.11800
H592        H  0.08035289  0.53584069  0.87542805     0.11800
H593        H  0.11808136  0.04070247  0.91087051     0.11800
H594        H  0.13467337  0.95129026  0.90616195     0.11800
C595        C  0.41133190  0.48225833  0.61391301    -0.14300
C596        C  0.41657279  0.00832703  0.62720135     0.07800
C597        C  0.40142761  0.03216879  0.61778829    -0.14300
C598        C  0.38026505  0.02966022  0.59692468    -0.14300
C599        C  0.37333908  0.50315504  0.58541602     0.07800
C600        C  0.38973549  0.47964328  0.59348517    -0.14300
H601        H  0.42261517  0.46340370  0.62058965     0.11800
H602        H  0.40495899  0.05252245  0.62747594     0.11800
H603        H  0.36804481  0.04824596  0.59115138     0.11800
H604        H  0.38508261  0.45902005  0.58486782     0.11800
C605        C  0.47875845  0.38512174  0.63408068    -0.14300
C606        C  0.50493021  0.39510879  0.64508473     0.07800
C607        C  0.03095310  0.38644708  0.63236235    -0.14300
C608        C  0.03069007  0.36812720  0.60910118    -0.14300
C609        C  0.50440686  0.35794370  0.59839222     0.07800
C610        C  0.47850201  0.36674557  0.61117406    -0.14300
H611        H  0.45831915  0.39155584  0.64320239     0.11800
H612        H  0.05143550  0.39421524  0.64005913     0.11800
H613        H  0.05101586  0.36140986  0.59996282     0.11800
H614        H  0.45786914  0.35918623  0.60363102     0.11800
C615        C  0.46787568  0.11257592  0.86566630    -0.14300
C616        C  0.99403087  0.10115813  0.85574877     0.07800
C617        C  0.01969670  0.10815726  0.86987198    -0.14300
C618        C  0.01943791  0.12681073  0.89258379    -0.14300
C619        C  0.99348683  0.13879596  0.90209633     0.07800
C620        C  0.46759063  0.13111937  0.88875329    -0.14300
H621        H  0.44767280  0.10714537  0.85564423     0.11800
H622        H  0.04020245  0.09943524  0.86318656     0.11800
H623        H  0.03973852  0.13229969  0.90241027     0.11800
H624        H  0.44729556  0.14027850  0.89545213     0.11800
O625        O  0.04894266  0.50065805  0.27207610    -0.89300
C626        C  0.50010614  0.93309427  0.25141459     0.86700
Mg627      Mg  0.03352542  0.53282273  0.29988943     1.58100
O628        O  0.00823571  0.98497232  0.19798000    -0.89100
O629        O  0.06755790  0.99633728  0.22979490    -0.76400
C630        C  0.40407374  0.56924254  0.25206950     0.91700
O631        O  0.00153482  0.96883662  0.31063440    -0.76200
O632        O  0.41677798  0.56652501  0.27585482    -0.83700
Mg633      Mg  0.04391180  0.95805760  0.28745413     1.58000
C634        C  0.43440926  0.50937268  0.15323478     0.91700
O635        O  0.08609014  0.94187747  0.26869097    -0.82000
H636        H  0.03313058  0.50826045  0.17219565    -0.07300
C637        C  0.43274177  0.99062033  0.24427117     0.86600
O638        O  0.02168140  0.56171536  0.26276487    -0.76500
O639        O  0.02160459  0.94835741  0.24886582    -0.89300
O640        O  0.44947943  0.98783484  0.15944295    -0.82100
C641        C  0.50441056  0.91681603  0.16753477     0.91800
C642        C  0.09577082  0.93013650  0.24640624     0.91600
Mg643      Mg  0.45624065  0.54061614  0.21104263     1.58000
O644        O  0.41382032  0.55804123  0.22944357    -0.82000
O645        O  0.49878603  0.52924249  0.18852121    -0.76200
O646        O  0.02673436  0.92145407  0.18259316    -0.82100
O647        O  0.06877026  0.96831928  0.32784430    -0.83800
O648        O  0.47269002  0.57605556  0.31700270    -0.82100
C649        C  0.01406114  0.50724669  0.18547138     0.86100
O650        O  0.47804465  0.55000953  0.25004495    -0.89200
O651        O  0.45062963  0.99796595  0.22622647    -0.89400
O652        O  0.43191199  0.50198672  0.26847610    -0.76400
Mg653      Mg  0.04432664  0.95877271  0.20953402     1.58000
O654        O  0.48156808  0.93131016  0.17018377    -0.83800
H655        H  0.08120689  0.52528972  0.25824427    -0.07500
O656        O  0.49144754  0.51283698  0.30067654    -0.89100
H657        H  0.46703470  0.98959944  0.32696997    -0.07300
H658        H  0.99936419  0.58224492  0.23217632    -0.07500
C659        C  0.48595795  0.99065825  0.31349601     0.86000
C660        C  0.06666177  0.50801318  0.25386251     0.86600
C661        C  0.99934368  0.56557218  0.24788884     0.86700
H662        H  0.41805193  0.97353163  0.23964530    -0.07500
O663        O  0.47769314  0.93697313  0.23663668    -0.76500
Mg664      Mg  0.45520864  0.53918337  0.28919566     1.58000
H665        H  0.49997253  0.91670452  0.26742718    -0.07500
C666        C  0.06692341  0.98918593  0.34461128     0.91700
O667        O  0.01773655  0.56588417  0.32951110    -0.83700
C668        C  0.99482891  0.58020178  0.33249958     0.91700
O669        O  0.08279225  0.93174785  0.22270791    -0.83700
Mg670      Mg  0.46607743  0.96530903  0.19899739     1.58200
O671        O  0.05083184  0.51019550  0.33913955    -0.82100
O672        O  0.43246752  0.53037583  0.16988724    -0.83800
O673        O  0.00733625  0.76610303  0.04949124    -0.89300
C674        C  0.43218698  0.75797998  0.50445920     0.86700
Mg675      Mg  0.04340249  0.79199730  0.03593794     1.58100
O676        O  0.47715762  0.69840943  0.00189083    -0.89100
O677        O  0.49806132  0.72228888  0.06149484    -0.76400
C678        C  0.06379714  0.75519531  0.40158732     0.91700
O679        O  0.47678143  0.81209050  0.00906018    -0.76200
O680        O  0.06535229  0.77715527  0.41694934    -0.83700
Mg681      Mg  0.46511354  0.78558723  0.04816320     1.58000
C682        C  0.99432808  0.66200451  0.42294553     0.91700
O683        O  0.44793512  0.76509593  0.08891267    -0.82000
H684        H  0.99893402  0.66796470  0.02182229    -0.07300
C685        C  0.48464582  0.75388711  0.43539593     0.86600
O686        O  0.06672435  0.75376387  0.01717236    -0.76500
O687        O  0.44975562  0.75159206  0.02292837    -0.89300
O688        O  0.47204840  0.66774494  0.43792476    -0.82100
C689        C  0.40239733  0.68064723  0.50156185     0.91800
C690        C  0.43371307  0.74344314  0.09688581     0.91600
Mg691      Mg  0.03285939  0.71283908  0.45037291     1.58000
O692        O  0.04980719  0.73334266  0.40947382    -0.82000
O693        O  0.02114058  0.68673154  0.48972018    -0.76200
O694        O  0.41241697  0.69276837  0.02344794    -0.82100
O695        O  0.48078744  0.82084887  0.07502689    -0.83800
O696        O  0.08552659  0.80730363  0.47488212    -0.82100
C697        C  0.99872388  0.68346469  0.00494681     0.86100
O698        O  0.04822302  0.74725603  0.47536184    -0.89200
O699        O  0.49067249  0.73223177  0.44878747    -0.89400
O700        O  0.99974844  0.77620411  0.43715709    -0.76400
Mg701      Mg  0.45532293  0.70981690  0.04040488     1.58000
O702        O  0.41576159  0.68098032  0.47783707    -0.83800
H703        H  0.03251486  0.74431947  0.07591454    -0.07500
O704        O  0.02069893  0.80048413  0.49667392    -0.89100
H705        H  0.49888996  0.83109158  0.47702863    -0.07300
H706        H  0.08074806  0.72379218  0.98990635    -0.07500
C707        C  0.49913802  0.81545667  0.49377816     0.86000
C708        C  0.01331087  0.74452631  0.06303024     0.86600
C709        C  0.06602313  0.74104678  0.99366036     0.86700
H710        H  0.46545647  0.75410983  0.42248992    -0.07500
O711        O  0.43154891  0.74528052  0.48093001    -0.76500
Mg712      Mg  0.04244799  0.78912357  0.45808683     1.58000
H713        H  0.41764010  0.77541049  0.50806969    -0.07500
C714        C  0.50360957  0.83559864  0.07657923     0.91700
O715        O  0.08187248  0.81839230  0.02066665    -0.83700
C716        C  0.09523959  0.81948237  0.99694721     0.91700
O717        O  0.43204551  0.72147108  0.08157962    -0.83700
Mg718      Mg  0.45454341  0.70671619  0.46252080     1.58200
O719        O  0.02579798  0.83052869  0.06121607    -0.82100
O720        O  0.01724499  0.67672893  0.42405326    -0.83800
O721        O  0.21703991  0.78494468  0.22766511    -0.89300
C722        C  0.30337217  0.79281084  0.24562787     0.86700
Mg723      Mg  0.18435706  0.77772295  0.25943437     1.58100
O724        O  0.28255709  0.72956004  0.21279697    -0.89100
O725        O  0.23330648  0.76843921  0.18751099    -0.76400
C726        C  0.23794751  0.67274431  0.33571844     0.91700
O727        O  0.24507808  0.81070533  0.28410676    -0.76200
O728        O  0.21990299  0.69281610  0.33808337    -0.83700
Mg729      Mg  0.24643550  0.81898066  0.23606376     1.58000
C730        C  0.31499105  0.65388504  0.24777566     0.91700
O731        O  0.24801985  0.83335702  0.19003733    -0.82000
H732        H  0.26473127  0.70848263  0.18076415    -0.07300
C733        C  0.28911729  0.72809034  0.29896446     0.86600
O734        O  0.18388425  0.73021637  0.24974546    -0.76500
O735        O  0.28193241  0.79025409  0.23044611    -0.89300
O736        O  0.32216579  0.67624830  0.23435428    -0.82100
C737        C  0.35219553  0.74997604  0.18911615     0.91800
C738        C  0.26467668  0.83147064  0.16867194     0.91600
Mg739      Mg  0.25533081  0.68367136  0.26784059     1.58000
O740        O  0.25427860  0.67031973  0.31415360    -0.82000
O741        O  0.25574964  0.69200057  0.21963713    -0.76200
O742        O  0.33312074  0.76916247  0.18604176    -0.82100
O743        O  0.20933985  0.84925391  0.24051686    -0.83800
O744        O  0.16844932  0.73368125  0.31751079    -0.82100
C745        C  0.26784041  0.71000334  0.20336482     0.86100
O746        O  0.21984584  0.71228404  0.27340800    -0.89200
O747        O  0.28485939  0.71765587  0.27542166    -0.89400
O748        O  0.26838075  0.73581800  0.31488286    -0.76400
Mg749      Mg  0.28301138  0.76923901  0.19015181     1.58000
O750        O  0.34944567  0.73049224  0.20752780    -0.83800
H751        H  0.19067972  0.77352005  0.19637306    -0.07500
O752        O  0.21797363  0.77328547  0.29020561    -0.89100
H753        H  0.23443880  0.79463973  0.32272870    -0.07300
H754        H  0.19321444  0.68839601  0.25052692    -0.07500
C755        C  0.23219883  0.79297037  0.30003263     0.86000
C756        C  0.21264168  0.77578370  0.20364901     0.86600
C757        C  0.19874387  0.70926019  0.25788079     0.86700
H758        H  0.31105854  0.73118673  0.30599505    -0.07500
O759        O  0.31836976  0.77157814  0.25282373    -0.76500
Mg760      Mg  0.21857163  0.73417185  0.31317899     1.58000
H761        H  0.30925632  0.81347432  0.25327135    -0.07500
C762        C  0.18588856  0.84778302  0.25444375     0.91700
O763        O  0.15065047  0.77024047  0.29341090    -0.83700
C764        C  0.14824124  0.75129123  0.31244291     0.91700
O765        O  0.28273653  0.81141027  0.16613722    -0.83700
Mg766      Mg  0.31681355  0.72403863  0.24268506     1.58200
O767        O  0.17787029  0.82523596  0.26704379    -0.82100
O768        O  0.29240736  0.65286837  0.26310974    -0.83800
O769        O  0.22925229  0.00023824  0.44895515    -0.89300
C770        C  0.23445816  0.56272058  0.00799027     0.86700
Mg771      Mg  0.20813091  0.96082428  0.45869700     1.58100
O772        O  0.29883494  0.52444838  0.49779571    -0.89100
O773        O  0.27236403  0.51459568  0.43654229    -0.76400
C774        C  0.25719108  0.91935470  0.08393072     0.91700
O775        O  0.18212166  0.51675866  0.49672384    -0.76200
O776        O  0.23389327  0.92017748  0.06982179    -0.83700
Mg777      Mg  0.20511784  0.53821409  0.45921141     1.58000
C778        C  0.34706406  0.99994650  0.06788326     0.91700
O779        O  0.22222019  0.56610782  0.42222171    -0.82000
H780        H  0.33091895  0.01163958  0.47251619    -0.07300
C781        C  0.25112619  0.50124579  0.06616861     0.86600
O782        O  0.25096713  0.93938192  0.46997763    -0.76500
O783        O  0.24066537  0.55093112  0.48549884    -0.89300
O784        O  0.33653410  0.52200445  0.05642086    -0.82100
C785        C  0.31327291  0.59737912  0.00997948     0.91800
C786        C  0.24387079  0.58214136  0.41721529     0.91600
Mg787      Mg  0.29591333  0.96152784  0.03992821     1.58000
O788        O  0.27889407  0.93496273  0.07781502    -0.82000
O789        O  0.31808003  0.98260906  0.00172583    -0.76200
O790        O  0.29821228  0.59137353  0.48840631    -0.82100
O791        O  0.16749520  0.52376631  0.43156734    -0.83800
O792        O  0.20034773  0.90877754  0.01226626    -0.82100
C793        C  0.31670871  0.00675414  0.49012025     0.86100
O794        O  0.25985751  0.94843699  0.01447438    -0.89200
O795        O  0.27231569  0.49959148  0.05030829    -0.89400
O796        O  0.22898687  0.98591204  0.06276067    -0.76400
Mg797      Mg  0.28288932  0.55183725  0.46540867     1.58000
O798        O  0.31567646  0.58036255  0.03074699    -0.83800
H799        H  0.25076702  0.98341594  0.41639586    -0.07500
O800        O  0.20202180  0.97537487  0.00154770    -0.89100
H801        H  0.16896949  0.48774574  0.02582391    -0.07300
H802        H  0.28531115  0.92359008  0.49119668    -0.07500
C803        C  0.18362342  0.49277384  0.00861176     0.86000
C804        C  0.25045044  0.99895522  0.43305258     0.86600
C805        C  0.26602811  0.93635604  0.49214253     0.86700
H806        H  0.25097969  0.51696556  0.08265563    -0.07500
O807        O  0.24987080  0.55990637  0.02996787    -0.76500
Mg808      Mg  0.21764602  0.94835342  0.03468978     1.58000
H809        H  0.21495047  0.57513407  0.00921083    -0.07500
C810        C  0.15511392  0.49976407  0.42967334     0.91700
O811        O  0.18491078  0.91951659  0.46899890    -0.83700
C812        C  0.18577704  0.90287547  0.49024615     0.91700
O813        O  0.26696277  0.58067727  0.43142439    -0.83700
Mg814      Mg  0.29316042  0.53884786  0.04065143     1.58200
O815        O  0.16523609  0.97778286  0.44166387    -0.82100
O816        O  0.33451282  0.97599411  0.06637128    -0.83800
C817        C  0.28771126  0.86276131  0.13196707    -0.14300
C818        C  0.26298946  0.85389340  0.14689662     0.07800
C819        C  0.23668357  0.86778934  0.14208433    -0.14300
C820        C  0.23490358  0.88950009  0.12204468    -0.14300
C821        C  0.25958445  0.89835728  0.10703977     0.07800
C822        C  0.28609329  0.88505501  0.11245836    -0.14300
H823        H  0.30832056  0.85269897  0.13565025     0.11800
H824        H  0.21733970  0.86151639  0.15351092     0.11800
H825        H  0.21420271  0.89932672  0.11819937     0.11800
H826        H  0.30538115  0.89128758  0.10093096     0.11800
C827        C  0.21505455  0.64271390  0.37344829    -0.14300
C828        C  0.23959914  0.65058029  0.35767990     0.07800
C829        C  0.26533005  0.63535672  0.36121374    -0.14300
C830        C  0.26654707  0.61275515  0.38021026    -0.14300
C831        C  0.24185125  0.60441927  0.39545398     0.07800
C832        C  0.21608609  0.61957686  0.39195805    -0.14300
H833        H  0.19491467  0.65397293  0.37091143     0.11800
H834        H  0.28456300  0.64097636  0.34927702     0.11800
H835        H  0.28676689  0.60165674  0.38289273     0.11800
H836        H  0.19696095  0.61392799  0.40403694     0.11800
C837        C  0.35966555  0.65615290  0.48060709    -0.14300
C838        C  0.37544702  0.66402404  0.50454839     0.07800
C839        C  0.36707998  0.65325799  0.03121037    -0.14300
C840        C  0.34521139  0.63295520  0.03347462    -0.14300
C841        C  0.33089994  0.62348762  0.00919082     0.07800
C842        C  0.33738971  0.63633778  0.48295223    -0.14300
H843        H  0.36540109  0.66433995  0.45986454     0.11800
H844        H  0.37876380  0.65903355  0.05010545     0.11800
H845        H  0.34061793  0.62356802  0.05397577     0.11800
H846        H  0.32675153  0.62956511  0.46379862     0.11800
C847        C  0.13714625  0.84490750  0.01873068    -0.14300
C848        C  0.12192096  0.83686266  0.99445356     0.07800
C849        C  0.13075214  0.84791662  0.46803964    -0.14300
C850        C  0.15284004  0.86815126  0.46626593    -0.14300
C851        C  0.16697944  0.87737032  0.49080461     0.07800
C852        C  0.15957382  0.86468375  0.01689427    -0.14300
H853        H  0.13102302  0.83667655  0.03934830     0.11800
H854        H  0.11946051  0.84218427  0.44890289     0.11800
H855        H  0.15795211  0.87748525  0.44585836     0.11800
H856        H  0.16987105  0.87132619  0.03627165     0.11800
C857        C  0.09206145  0.72769737  0.36603680    -0.14300
C858        C  0.08086615  0.75377540  0.37500683     0.07800
C859        C  0.08921476  0.77839895  0.36047633    -0.14300
C860        C  0.10944796  0.77712873  0.33837797    -0.14300
C861        C  0.12237434  0.75133186  0.33099697     0.07800
C862        C  0.11295874  0.72654195  0.34455642    -0.14300
H863        H  0.08614870  0.70835127  0.37693450     0.11800
H864        H  0.08094032  0.79874291  0.36691646     0.11800
H865        H  0.11647583  0.79662086  0.32841862     0.11800
H866        H  0.12257610  0.70641813  0.33930659     0.11800
C867        C  0.40636710  0.77158550  0.13265492    -0.14300
C868        C  0.41671356  0.74521611  0.12354530     0.07800
C869        C  0.40808441  0.72086654  0.13840109    -0.14300
C870        C  0.38873037  0.72277801  0.16123715    -0.14300
C871        C  0.37695674  0.74897907  0.16911548     0.07800
C872        C  0.38639090  0.77340360  0.15490916    -0.14300
H873        H  0.41242227  0.79074079  0.12149130     0.11800
H874        H  0.41564131  0.70029577  0.13184656     0.11800
H875        H  0.38161053  0.70352441  0.17159733     0.11800
H876        H  0.37760514  0.79382187  0.16040202     0.11800
C877        C  0.35917952  0.59129988  0.27243215    -0.14300
C878        C  0.37857406  0.58792302  0.24976511     0.07800
C879        C  0.37505404  0.60462454  0.22530710    -0.17900
C880        C  0.35363039  0.62534125  0.22413074    -0.14300
C881        C  0.33465794  0.62925031  0.24704940     0.07800
C882        C  0.33712555  0.61146566  0.27089889    -0.14300
H883        H  0.36145364  0.57876591  0.29152628     0.11800
H884        H  0.38988659  0.60269505  0.20760940     0.11800
H885        H  0.35238562  0.63882073  0.20558471     0.11800
H886        H  0.32302069  0.61422244  0.28903975     0.11800
C887        C  0.12566335  0.89711360  0.27477674    -0.14300
C888        C  0.12150632  0.91210666  0.24933013     0.07800
C889        C  0.14057108  0.90772647  0.22662058    -0.14300
C890        C  0.16301611  0.88816862  0.22914885    -0.14300
C891        C  0.16609781  0.87207050  0.25407615     0.07800
C892        C  0.14744505  0.87695673  0.27696680    -0.14300
H893        H  0.11106102  0.89988204  0.29253916     0.11800
H894        H  0.13774403  0.91896359  0.20680536     0.11800
H895        H  0.17690401  0.88442781  0.21102873     0.11800
H896        H  0.14922876  0.86463842  0.29626533     0.11800
C897        C  0.10122780  0.96703933  0.37935203    -0.14300
C898        C  0.08586449  0.99072431  0.36985687     0.07800
C899        C  0.09159390  0.01706105  0.38238391    -0.14300
C900        C  0.11332299  0.51994712  0.40263181    -0.14300
C901        C  0.12942876  0.49646091  0.41131849     0.07800
C902        C  0.12254066  0.46982803  0.40006019    -0.14300
H903        H  0.09748220  0.94652609  0.37008282     0.11800
H904        H  0.08035281  0.03584071  0.37542817     0.11800
H905        H  0.11808133  0.54070250  0.41087049     0.11800
H906        H  0.13467337  0.45129029  0.40616197     0.11800
C907        C  0.41133197  0.98225840  0.11391294    -0.14300
C908        C  0.41657280  0.50832697  0.12720133     0.07800
C909        C  0.40142758  0.53216872  0.11778832    -0.14300
C910        C  0.38026504  0.52966016  0.09692468    -0.14300
C911        C  0.37333910  0.00315511  0.08541599     0.07800
C912        C  0.38973555  0.97964336  0.09348509    -0.14300
H913        H  0.42261525  0.96340376  0.12058954     0.11800
H914        H  0.40495891  0.55252233  0.12747602     0.11800
H915        H  0.36804476  0.54824590  0.09115144     0.11800
H916        H  0.38508270  0.95902015  0.08486770     0.11800
C917        C  0.47875845  0.88512163  0.13408076    -0.14300
C918        C  0.50493021  0.89510880  0.14508475     0.07800
C919        C  0.03095313  0.88644711  0.13236229    -0.14300
C920        C  0.03069006  0.86812714  0.10910119    -0.14300
C921        C  0.50440686  0.85794362  0.09839226     0.07800
C922        C  0.47850201  0.86674548  0.11117412    -0.14300
H923        H  0.45831917  0.89155568  0.14320252     0.11800
H924        H  0.05143555  0.89421536  0.14005897     0.11800
H925        H  0.05101585  0.86140979  0.09996279     0.11800
H926        H  0.45786913  0.85918616  0.10363104     0.11800
C927        C  0.46787570  0.61257601  0.36566629    -0.14300
C928        C  0.99403087  0.60115818  0.35574876     0.07800
C929        C  0.01969667  0.60815720  0.36987203    -0.14300
C930        C  0.01943793  0.62681067  0.39258386    -0.14300
C931        C  0.99348684  0.63879594  0.40209638     0.07800
C932        C  0.46759069  0.63111939  0.38875333    -0.14300
H933        H  0.44767281  0.60714555  0.35564419     0.11800
H934        H  0.04020241  0.59943511  0.36318663     0.11800
H935        H  0.03973852  0.63229961  0.40241029     0.11800
H936        H  0.44729563  0.64027857  0.39545218     0.11800
O937        O  0.04894268  0.50065803  0.77207610    -0.89300
C938        C  0.50010618  0.93309422  0.75141456     0.86700
Mg939      Mg  0.03352540  0.53282270  0.79988943     1.58100
O940        O  0.00823566  0.98497237  0.69798002    -0.89100
O941        O  0.06755790  0.99633725  0.72979491    -0.76400
C942        C  0.40407376  0.56924253  0.75206951     0.91700
O943        O  0.00153487  0.96883661  0.81063445    -0.76200
O944        O  0.41677802  0.56652500  0.77585482    -0.83700
Mg945      Mg  0.04391175  0.95805756  0.78745408     1.58000
C946        C  0.43440923  0.50937263  0.65323478     0.91700
O947        O  0.08609008  0.94187738  0.76869090    -0.82000
H948        H  0.03313045  0.50826039  0.67219546    -0.07300
C949        C  0.43274183  0.99062034  0.74427117     0.86600
O950        O  0.02168128  0.56171534  0.76276491    -0.76500
O951        O  0.02160455  0.94835740  0.74886578    -0.89300
O952        O  0.44947952  0.98783484  0.65944289    -0.82100
C953        C  0.50441062  0.91681601  0.66753473     0.91800
C954        C  0.09577082  0.93013647  0.74640618     0.91600
Mg955      Mg  0.45624072  0.54061611  0.71104259     1.58000
O956        O  0.41382039  0.55804125  0.72944358    -0.82000
O957        O  0.49878612  0.52924247  0.68852108    -0.76200
O958        O  0.02673430  0.92145406  0.68259311    -0.82100
O959        O  0.06877017  0.96831922  0.82784427    -0.83800
O960        O  0.47269000  0.57605553  0.81700267    -0.82100
C961        C  0.01406109  0.50724666  0.68547130     0.86100
O962        O  0.47804476  0.55000948  0.75004491    -0.89200
O963        O  0.45062970  0.99796597  0.72622646    -0.89400
O964        O  0.43191208  0.50198667  0.76847614    -0.76400
Mg965      Mg  0.04432663  0.95877271  0.70953400     1.58000
O966        O  0.48156813  0.93131014  0.67018374    -0.83800
H967        H  0.08120686  0.52528976  0.75824424    -0.07500
O968        O  0.49144755  0.51283695  0.80067660    -0.89100
H969        H  0.46703482  0.98959947  0.82697006    -0.07300
H970        H  0.99936417  0.58224484  0.73217625    -0.07500
C971        C  0.48595805  0.99065828  0.81349607     0.86000
C972        C  0.06666178  0.50801318  0.75386252     0.86600
C973        C  0.99934361  0.56557213  0.74788881     0.86700
H974        H  0.41805198  0.97353173  0.73964529    -0.07500
O975        O  0.47769313  0.93697313  0.73663672    -0.76500
Mg976      Mg  0.45520869  0.53918335  0.78919563     1.58000
H977        H  0.49997264  0.91670448  0.76742712    -0.07500
C978        C  0.06692337  0.98918589  0.84461124     0.91700
O979        O  0.01773655  0.56588412  0.82951110    -0.83700
C980        C  0.99482892  0.58020175  0.83249955     0.91700
O981        O  0.08279229  0.93174785  0.72270784    -0.83700
Mg982      Mg  0.46607751  0.96530904  0.69899737     1.58200
O983        O  0.05083192  0.51019548  0.83913949    -0.82100
O984        O  0.43246756  0.53037580  0.66988722    -0.83800
O985        O  0.00733625  0.76610308  0.54949119    -0.89300
C986        C  0.43218704  0.75798001  0.00445914     0.86700
Mg987      Mg  0.04340247  0.79199736  0.53593794     1.58100
O988        O  0.47715761  0.69840943  0.50189084    -0.89100
O989        O  0.49806125  0.72228900  0.56149492    -0.76400
C990        C  0.06379713  0.75519531  0.90158732     0.91700
O991        O  0.47678140  0.81209045  0.50906013    -0.76200
O992        O  0.06535222  0.77715527  0.91694934    -0.83700
Mg993      Mg  0.46511350  0.78558725  0.54816320     1.58000
C994        C  0.99432807  0.66200448  0.92294552     0.91700
O995        O  0.44793514  0.76509598  0.58891272    -0.82000
H996        H  0.99893412  0.66796464  0.52182220    -0.07300
C997        C  0.48464583  0.75388711  0.93539596     0.86600
O998        O  0.06672437  0.75376390  0.51717245    -0.76500
O999        O  0.44975563  0.75159204  0.52292835    -0.89300
O1000       O  0.47204840  0.66774487  0.93792479    -0.82100
C1001       C  0.40239732  0.68064728  0.00156188     0.91800
C1002       C  0.43371305  0.74344320  0.59688579     0.91600
Mg1003     Mg  0.03285934  0.71283905  0.95037289     1.58000
O1004       O  0.04980721  0.73334263  0.90947380    -0.82000
O1005       O  0.02114053  0.68673151  0.98972023    -0.76200
O1006       O  0.41241703  0.69276832  0.52344787    -0.82100
O1007       O  0.48078733  0.82084893  0.57502693    -0.83800
O1008       O  0.08552660  0.80730357  0.97488216    -0.82100
C1009       C  0.99872395  0.68346466  0.50494677     0.86100
O1010       O  0.04822297  0.74725599  0.97536178    -0.89200
O1011       O  0.49067248  0.73223174  0.94878745    -0.89400
O1012       O  0.99974834  0.77620409  0.93715713    -0.76400
Mg1013     Mg  0.45532293  0.70981693  0.54040486     1.58000
O1014       O  0.41576163  0.68098040  0.97783712    -0.83800
H1015       H  0.03251489  0.74431970  0.57591460    -0.07500
O1016       O  0.02069892  0.80048411  0.99667391    -0.89100
H1017       H  0.49888988  0.83109153  0.97702855    -0.07300
H1018       H  0.08074804  0.72379218  0.48990649    -0.07500
C1019       C  0.49913799  0.81545664  0.99377812     0.86000
C1020       C  0.01331088  0.74452643  0.56303025     0.86600
C1021       C  0.06602317  0.74104680  0.49366045     0.86700
H1022       H  0.46545646  0.75410986  0.92248992    -0.07500
O1023       O  0.43154899  0.74528051  0.98092998    -0.76500
Mg1024     Mg  0.04244795  0.78912355  0.95808684     1.58000
H1025       H  0.41764020  0.77541056  0.00806953    -0.07500
C1026       C  0.50360950  0.83559868  0.57657922     0.91700
O1027       O  0.08187236  0.81839244  0.52066658    -0.83700
C1028       C  0.09523953  0.81948247  0.49694718     0.91700
O1029       O  0.43204545  0.72147119  0.58157953    -0.83700
Mg1030     Mg  0.45454343  0.70671618  0.96252078     1.58200
O1031       O  0.02579802  0.83052874  0.56121606    -0.82100
O1032       O  0.01724499  0.67672892  0.92405321    -0.83800
O1033       O  0.21703992  0.78494465  0.72766509    -0.89300
C1034       C  0.30337224  0.79281089  0.74562784     0.86700
Mg1035     Mg  0.18435712  0.77772292  0.75943438     1.58100
O1036       O  0.28255718  0.72956002  0.71279691    -0.89100
O1037       O  0.23330639  0.76843918  0.68751091    -0.76400
C1038       C  0.23794746  0.67274428  0.83571849     0.91700
O1039       O  0.24507806  0.81070533  0.78410679    -0.76200
O1040       O  0.21990294  0.69281606  0.83808341    -0.83700
Mg1041     Mg  0.24643552  0.81898066  0.73606374     1.58000
C1042       C  0.31499103  0.65388502  0.74777560     0.91700
O1043       O  0.24801981  0.83335697  0.69003729    -0.82000
H1044       H  0.26473130  0.70848251  0.68076419    -0.07300
C1045       C  0.28911733  0.72809034  0.79896452     0.86600
O1046       O  0.18388429  0.73021634  0.74974540    -0.76500
O1047       O  0.28193245  0.79025404  0.73044610    -0.89300
O1048       O  0.32216587  0.67624831  0.73435432    -0.82100
C1049       C  0.35219560  0.74997611  0.68911611     0.91800
C1050       C  0.26467672  0.83147066  0.66867197     0.91600
Mg1051     Mg  0.25533084  0.68367134  0.76784065     1.58000
O1052       O  0.25427862  0.67031974  0.81415370    -0.82000
O1053       O  0.25574974  0.69200056  0.71963721    -0.76200
O1054       O  0.33312075  0.76916247  0.68604161    -0.82100
O1055       O  0.20933989  0.84925403  0.74051685    -0.83800
O1056       O  0.16844941  0.73368122  0.81751087    -0.82100
C1057       C  0.26784048  0.71000328  0.70336483     0.86100
O1058       O  0.21984585  0.71228401  0.77340802    -0.89200
O1059       O  0.28485940  0.71765588  0.77542173    -0.89400
O1060       O  0.26838083  0.73581808  0.81488294    -0.76400
Mg1061     Mg  0.28301139  0.76923901  0.69015175     1.58000
O1062       O  0.34944576  0.73049232  0.70752778    -0.83800
H1063       H  0.19067965  0.77352001  0.69637310    -0.07500
O1064       O  0.21797369  0.77328543  0.79020567    -0.89100
H1065       H  0.23443889  0.79463968  0.82272875    -0.07300
H1066       H  0.19321442  0.68839599  0.75052694    -0.07500
C1067       C  0.23219888  0.79297033  0.80003268     0.86000
C1068       C  0.21264162  0.77578367  0.70364898     0.86600
C1069       C  0.19874388  0.70926015  0.75788078     0.86700
H1070       H  0.31105863  0.73118668  0.80599509    -0.07500
O1071       O  0.31836986  0.77157822  0.75282377    -0.76500
Mg1072     Mg  0.21857169  0.73417183  0.81317904     1.58000
H1073       H  0.30925636  0.81347437  0.75327120    -0.07500
C1074       C  0.18588858  0.84778306  0.75444371     0.91700
O1075       O  0.15065055  0.77024044  0.79341098    -0.83700
C1076       C  0.14824133  0.75129120  0.81244300     0.91700
O1077       O  0.28273662  0.81141033  0.66613729    -0.83700
Mg1078     Mg  0.31681361  0.72403866  0.74268509     1.58200
O1079       O  0.17787032  0.82523597  0.76704371    -0.82100
O1080       O  0.29240735  0.65286835  0.76310968    -0.83800
O1081       O  0.22925224  0.00023820  0.94895516    -0.89300
C1082       C  0.23445809  0.56272050  0.50799030     0.86700
Mg1083     Mg  0.20813093  0.96082426  0.95869703     1.58100
O1084       O  0.29883485  0.52444835  0.99779572    -0.89100
O1085       O  0.27236394  0.51459564  0.93654230    -0.76400
C1086       C  0.25719103  0.91935465  0.58393070     0.91700
O1087       O  0.18212167  0.51675862  0.99672394    -0.76200
O1088       O  0.23389321  0.92017747  0.56982178    -0.83700
Mg1089     Mg  0.20511785  0.53821407  0.95921147     1.58000
C1090       C  0.34706403  0.99994648  0.56788329     0.91700
O1091       O  0.22222012  0.56610782  0.92222178    -0.82000
H1092       H  0.33091897  0.01163953  0.97251622    -0.07300
C1093       C  0.25112615  0.50124577  0.56616862     0.86600
O1094       O  0.25096716  0.93938191  0.96997764    -0.76500
O1095       O  0.24066543  0.55093119  0.98549881    -0.89300
O1096       O  0.33653411  0.52200442  0.55642084    -0.82100
C1097       C  0.31327296  0.59737910  0.50997947     0.91800
C1098       C  0.24387073  0.58214133  0.91721530     0.91600
Mg1099     Mg  0.29591328  0.96152782  0.53992820     1.58000
O1100       O  0.27889401  0.93496271  0.57781504    -0.82000
O1101       O  0.31807996  0.98260905  0.50172575    -0.76200
O1102       O  0.29821234  0.59137347  0.98840626    -0.82100
O1103       O  0.16749524  0.52376627  0.93156743    -0.83800
O1104       O  0.20034769  0.90877758  0.51226625    -0.82100
C1105       C  0.31670877  0.00675414  0.99012028     0.86100
O1106       O  0.25985749  0.94843697  0.51447437    -0.89200
O1107       O  0.27231569  0.49959144  0.55030834    -0.89400
O1108       O  0.22898677  0.98591212  0.56276066    -0.76400
Mg1109     Mg  0.28288934  0.55183721  0.96540864     1.58000
O1110       O  0.31567655  0.58036248  0.53074694    -0.83800
H1111       H  0.25076691  0.98341593  0.91639581    -0.07500
O1112       O  0.20202170  0.97537487  0.50154764    -0.89100
H1113       H  0.16896942  0.48774573  0.52582375    -0.07300
H1114       H  0.28531113  0.92359006  0.99119678    -0.07500
C1115       C  0.18362344  0.49277388  0.50861165     0.86000
C1116       C  0.25045036  0.99895520  0.93305258     0.86600
C1117       C  0.26602812  0.93635601  0.99214257     0.86700
H1118       H  0.25097959  0.51696557  0.58265558    -0.07500
O1119       O  0.24987074  0.55990632  0.52996789    -0.76500
Mg1120     Mg  0.21764596  0.94835345  0.53468975     1.58000
H1121       H  0.21495037  0.57513401  0.50921083    -0.07500
C1122       C  0.15511394  0.49976404  0.92967341     0.91700
O1123       O  0.18491077  0.91951658  0.96899894    -0.83700
C1124       C  0.18577705  0.90287545  0.99024617     0.91700
O1125       O  0.26696275  0.58067720  0.93142435    -0.83700
Mg1126     Mg  0.29316044  0.53884783  0.54065143     1.58200
O1127       O  0.16523614  0.97778288  0.94166391    -0.82100
O1128       O  0.33451278  0.97599410  0.56637126    -0.83800
C1129       C  0.28771130  0.86276134  0.63196712    -0.14300
C1130       C  0.26298951  0.85389343  0.64689667     0.07800
C1131       C  0.23668359  0.86778930  0.64208433    -0.14300
C1132       C  0.23490358  0.88949999  0.62204463    -0.14300
C1133       C  0.25958444  0.89835720  0.60703973     0.07800
C1134       C  0.28609331  0.88505501  0.61245839    -0.14300
H1135       H  0.30832062  0.85269903  0.63565033     0.11800
H1136       H  0.21733974  0.86151635  0.65351089     0.11800
H1137       H  0.21420268  0.89932654  0.61819926     0.11800
H1138       H  0.30538120  0.89128764  0.60093104     0.11800
C1139       C  0.21505451  0.64271390  0.87344838    -0.14300
C1140       C  0.23959909  0.65058026  0.85767993     0.07800
C1141       C  0.26532997  0.63535664  0.86121369    -0.14300
C1142       C  0.26654701  0.61275507  0.88021021    -0.14300
C1143       C  0.24185120  0.60441923  0.89545399     0.07800
C1144       C  0.21608606  0.61957686  0.89195814    -0.14300
H1145       H  0.19491464  0.65397293  0.87091157     0.11800
H1146       H  0.28456290  0.64097625  0.84927693     0.11800
H1147       H  0.28676681  0.60165667  0.88289264     0.11800
H1148       H  0.19696094  0.61392801  0.90403707     0.11800
C1149       C  0.35966557  0.65615288  0.98060705    -0.14300
C1150       C  0.37544703  0.66402404  0.00454839     0.07800
C1151       C  0.36707999  0.65325801  0.53121041    -0.14300
C1152       C  0.34521142  0.63295518  0.53347463    -0.14300
C1153       C  0.33090001  0.62348757  0.50919085     0.07800
C1154       C  0.33738969  0.63633780  0.98295222    -0.14300
H1155       H  0.36540115  0.66433991  0.95986453     0.11800
H1156       H  0.37876376  0.65903362  0.55010545     0.11800
H1157       H  0.34061795  0.62356802  0.55397583     0.11800
H1158       H  0.32675148  0.62956512  0.96379857     0.11800
C1159       C  0.13714628  0.84490750  0.51873069    -0.14300
C1160       C  0.12192094  0.83686272  0.49445356     0.07800
C1161       C  0.13075215  0.84791655  0.96803961    -0.14300
C1162       C  0.15284002  0.86815126  0.96626592    -0.14300
C1163       C  0.16697943  0.87737030  0.99080460     0.07800
C1164       C  0.15957382  0.86468378  0.51689427    -0.14300
H1165       H  0.13102309  0.83667650  0.53934831     0.11800
H1166       H  0.11946057  0.84218415  0.94890288     0.11800
H1167       H  0.15795207  0.87748526  0.94585835     0.11800
H1168       H  0.16987105  0.87132628  0.53627168     0.11800
C1169       C  0.09206151  0.72769738  0.86603685    -0.14300
C1170       C  0.08086620  0.75377540  0.87500686     0.07800
C1171       C  0.08921485  0.77839896  0.86047638    -0.14300
C1172       C  0.10944807  0.77712872  0.83837805    -0.14300
C1173       C  0.12237444  0.75133184  0.83099706     0.07800
C1174       C  0.11295882  0.72654194  0.84455650    -0.14300
H1175       H  0.08614874  0.70835127  0.87693456     0.11800
H1176       H  0.08094043  0.79874291  0.86691653     0.11800
H1177       H  0.11647596  0.79662083  0.82841872     0.11800
H1178       H  0.12257616  0.70641812  0.83930666     0.11800
C1179       C  0.40636723  0.77158556  0.63265496    -0.14300
C1180       C  0.41671357  0.74521614  0.62354529     0.07800
C1181       C  0.40808435  0.72086657  0.63840103    -0.14300
C1182       C  0.38873043  0.72277808  0.66123716    -0.14300
C1183       C  0.37695687  0.74897917  0.66911552     0.07800
C1184       C  0.38639105  0.77340369  0.65490921    -0.14300
H1185       H  0.41242244  0.79074083  0.62149135     0.11800
H1186       H  0.41564109  0.70029578  0.63184641     0.11800
H1187       H  0.38161055  0.70352452  0.67159734     0.11800
H1188       H  0.37760531  0.79382197  0.66040206     0.11800
C1189       C  0.35917947  0.59129992  0.77243217    -0.14300
C1190       C  0.37857404  0.58792300  0.74976513     0.07800
C1191       C  0.37505402  0.60462453  0.72530714    -0.17900
C1192       C  0.35363039  0.62534126  0.72413073    -0.14300
C1193       C  0.33465789  0.62925029  0.74704936     0.07800
C1194       C  0.33712551  0.61146570  0.77089888    -0.14300
H1195       H  0.36145358  0.57876599  0.79152634     0.11800
H1196       H  0.38988660  0.60269503  0.70760943     0.11800
H1197       H  0.35238564  0.63882076  0.70558475     0.11800
H1198       H  0.32302067  0.61422257  0.78903976     0.11800
C1199       C  0.12566339  0.89711364  0.77477673    -0.14300
C1200       C  0.12150632  0.91210665  0.74933010     0.07800
C1201       C  0.14057107  0.90772646  0.72662055    -0.14300
C1202       C  0.16301607  0.88816858  0.72914879    -0.14300
C1203       C  0.16609779  0.87207050  0.75407612     0.07800
C1204       C  0.14744512  0.87695681  0.77696683    -0.14300
H1205       H  0.11106107  0.89988212  0.79253917     0.11800
H1206       H  0.13774403  0.91896361  0.70680533     0.11800
H1207       H  0.17690395  0.88442774  0.71102869     0.11800
H1208       H  0.14922892  0.86463859  0.79626539     0.11800
C1209       C  0.10122776  0.96703933  0.87935208    -0.14300
C1210       C  0.08586445  0.99072429  0.86985687     0.07800
C1211       C  0.09159390  0.01706104  0.88238389    -0.14300
C1212       C  0.11332304  0.51994709  0.90263182    -0.14300
C1213       C  0.12942879  0.49646088  0.91131854     0.07800
C1214       C  0.12254068  0.46982801  0.90006021    -0.14300
H1215       H  0.09748216  0.94652606  0.87008290     0.11800
H1216       H  0.08035280  0.03584070  0.87542811     0.11800
H1217       H  0.11808136  0.54070246  0.91087052     0.11800
H1218       H  0.13467343  0.45129024  0.90616194     0.11800
C1219       C  0.41133196  0.98225843  0.61391299    -0.14300
C1220       C  0.41657273  0.50832693  0.62720137     0.07800
C1221       C  0.40142760  0.53216871  0.61778831    -0.14300
C1222       C  0.38026507  0.52966017  0.59692465    -0.14300
C1223       C  0.37333907  0.00315508  0.58541606     0.07800
C1224       C  0.38973552  0.97964335  0.59348520    -0.14300
H1225       H  0.42261526  0.96340381  0.62058963     0.11800
H1226       H  0.40495898  0.55252233  0.62747597     0.11800
H1227       H  0.36804488  0.54824593  0.59115134     0.11800
H1228       H  0.38508264  0.95902009  0.58486791     0.11800
C1229       C  0.47875850  0.88512169  0.63408072    -0.14300
C1230       C  0.50493026  0.89510879  0.64508472     0.07800
C1231       C  0.03095310  0.88644708  0.63236234    -0.14300
C1232       C  0.03069008  0.86812712  0.60910124    -0.14300
C1233       C  0.50440688  0.85794365  0.59839225     0.07800
C1234       C  0.47850204  0.86674555  0.61117408    -0.14300
H1235       H  0.45831923  0.89155577  0.64320245     0.11800
H1236       H  0.05143549  0.89421529  0.64005908     0.11800
H1237       H  0.05101590  0.86140973  0.59996291     0.11800
H1238       H  0.45786919  0.85918627  0.60363099     0.11800
C1239       C  0.46787568  0.61257596  0.86566630    -0.14300
C1240       C  0.99403088  0.60115812  0.85574876     0.07800
C1241       C  0.01969668  0.60815723  0.86987201    -0.14300
C1242       C  0.01943791  0.62681071  0.89258380    -0.14300
C1243       C  0.99348682  0.63879595  0.90209635     0.07800
C1244       C  0.46759068  0.63111939  0.88875331    -0.14300
H1245       H  0.44767278  0.60714547  0.85564423     0.11800
H1246       H  0.04020247  0.59943519  0.86318661     0.11800
H1247       H  0.03973852  0.63229968  0.90241023     0.11800
H1248       H  0.44729562  0.64027858  0.89545214     0.11800
O1249       O  0.54894269  0.00065805  0.27207610    -0.89300
C1250       C  0.00010620  0.43309422  0.25141459     0.86700
Mg1251     Mg  0.53352539  0.03282272  0.29988943     1.58100
O1252       O  0.50823569  0.48497229  0.19798000    -0.89100
O1253       O  0.56755794  0.49633724  0.22979492    -0.76400
C1254       C  0.90407374  0.06924251  0.25206945     0.91700
O1255       O  0.50153487  0.46883663  0.31063440    -0.76200
O1256       O  0.91677798  0.06652496  0.27585477    -0.83700
Mg1257     Mg  0.54391179  0.45805759  0.28745413     1.58000
C1258       C  0.93440929  0.00937275  0.15323477     0.91700
O1259       O  0.58609013  0.44187747  0.26869096    -0.82000
H1260       H  0.53313053  0.00826048  0.17219560    -0.07300
C1261       C  0.93274172  0.49062040  0.24427116     0.86600
O1262       O  0.52168133  0.06171544  0.26276489    -0.76500
O1263       O  0.52160459  0.44835738  0.24886585    -0.89300
O1264       O  0.94947947  0.48783483  0.15944294    -0.82100
C1265       C  0.00441051  0.41681598  0.16753478     0.91800
C1266       C  0.59577082  0.43013651  0.24640623     0.91600
Mg1267     Mg  0.95624072  0.04061614  0.21104264     1.58000
O1268       O  0.91382033  0.05804121  0.22944353    -0.82000
O1269       O  0.99878615  0.02924256  0.18852122    -0.76200
O1270       O  0.52673431  0.42145404  0.18259317    -0.82100
O1271       O  0.56877019  0.46831924  0.32784432    -0.83800
O1272       O  0.97269001  0.07605563  0.31700266    -0.82100
C1273       C  0.51406112  0.00724669  0.18547136     0.86100
O1274       O  0.97804475  0.05000951  0.25004497    -0.89200
O1275       O  0.95062959  0.49796598  0.22622645    -0.89400
O1276       O  0.93191212  0.00198664  0.26847612    -0.76400
Mg1277     Mg  0.54432664  0.45877268  0.20953404     1.58000
O1278       O  0.98156802  0.43131012  0.17018377    -0.83800
H1279       H  0.58120689  0.02528975  0.25824426    -0.07500
O1280       O  0.99144758  0.01283700  0.30067654    -0.89100
H1281       H  0.96703477  0.48959952  0.32696998    -0.07300
H1282       H  0.49936408  0.08224491  0.23217629    -0.07500
C1283       C  0.98595801  0.49065830  0.31349601     0.86000
C1284       C  0.56666180  0.00801319  0.25386251     0.86600
C1285       C  0.49934361  0.06557219  0.24788883     0.86700
H1286       H  0.91805179  0.47353179  0.23964530    -0.07500
O1287       O  0.97769318  0.43697312  0.23663671    -0.76500
Mg1288     Mg  0.95520868  0.03918337  0.28919565     1.58000
H1289       H  0.99997261  0.41670447  0.26742717    -0.07500
C1290       C  0.56692337  0.48918591  0.34461129     0.91700
O1291       O  0.51773652  0.06588411  0.32951114    -0.83700
C1292       C  0.49482892  0.08020178  0.33249958     0.91700
O1293       O  0.58279225  0.43174784  0.22270791    -0.83700
Mg1294     Mg  0.96607741  0.46530901  0.19899739     1.58200
O1295       O  0.55083190  0.01019553  0.33913951    -0.82100
O1296       O  0.93246761  0.03037589  0.16988724    -0.83800
O1297       O  0.50733624  0.26610305  0.04949123    -0.89300
C1298       C  0.93218700  0.25797994  0.50445919     0.86700
Mg1299     Mg  0.54340246  0.29199733  0.03593793     1.58100
O1300       O  0.97715759  0.19840939  0.00189080    -0.89100
O1301       O  0.99806129  0.22228896  0.06149486    -0.76400
C1302       C  0.56379719  0.25519530  0.40158732     0.91700
O1303       O  0.97678146  0.31209045  0.00906015    -0.76200
O1304       O  0.56535227  0.27715529  0.41694931    -0.83700
Mg1305     Mg  0.96511351  0.28558724  0.04816318     1.58000
C1306       C  0.49432808  0.16200448  0.42294554     0.91700
O1307       O  0.94793509  0.26509598  0.08891268    -0.82000
H1308       H  0.49893412  0.16796467  0.02182232    -0.07300
C1309       C  0.98464582  0.25388710  0.43539595     0.86600
O1310       O  0.56672429  0.25376388  0.01717236    -0.76500
O1311       O  0.94975568  0.25159203  0.02292833    -0.89300
O1312       O  0.97204835  0.16774490  0.43792477    -0.82100
C1313       C  0.90239738  0.18064724  0.50156184     0.91800
C1314       C  0.93371302  0.24344320  0.09688579     0.91600
Mg1315     Mg  0.53285937  0.21283907  0.45037291     1.58000
O1316       O  0.54980731  0.23334263  0.40947385    -0.82000
O1317       O  0.52114052  0.18673152  0.48972017    -0.76200
O1318       O  0.91241697  0.19276833  0.02344794    -0.82100
O1319       O  0.98078736  0.32084893  0.07502686    -0.83800
O1320       O  0.58552667  0.30730357  0.47488212    -0.82100
C1321       C  0.49872396  0.18346465  0.00494682     0.86100
O1322       O  0.54822301  0.24725604  0.47536184    -0.89200
O1323       O  0.99067249  0.23223174  0.44878745    -0.89400
O1324       O  0.49974840  0.27620408  0.43715710    -0.76400
Mg1325     Mg  0.95532293  0.20981691  0.04040487     1.58000
O1326       O  0.91576167  0.18098038  0.47783708    -0.83800
H1327       H  0.53251484  0.24431958  0.07591460    -0.07500
O1328       O  0.52069895  0.30048410  0.49667393    -0.89100
H1329       H  0.99889002  0.33109157  0.47702862    -0.07300
H1330       H  0.58074798  0.22379217  0.98990634    -0.07500
C1331       C  0.99913804  0.31545670  0.49377815     0.86000
C1332       C  0.51331088  0.24452635  0.06303026     0.86600
C1333       C  0.56602306  0.24104681  0.99366036     0.86700
H1334       H  0.96545645  0.25410987  0.42248995    -0.07500
O1335       O  0.93154901  0.24528050  0.48092999    -0.76500
Mg1336     Mg  0.54244800  0.28912357  0.45808683     1.58000
H1337       H  0.91764007  0.27541043  0.50806964    -0.07500
C1338       C  0.00360952  0.33559866  0.07657923     0.91700
O1339       O  0.58187241  0.31839242  0.02066664    -0.83700
C1340       C  0.59523956  0.31948240  0.99694723     0.91700
O1341       O  0.93204547  0.22147115  0.08157958    -0.83700
Mg1342     Mg  0.95454346  0.20671618  0.46252080     1.58200
O1343       O  0.52579801  0.33052868  0.06121612    -0.82100
O1344       O  0.51724499  0.17672892  0.42405324    -0.83800
O1345       O  0.71703994  0.28494465  0.22766516    -0.89300
C1346       C  0.80337226  0.29281089  0.24562788     0.86700
Mg1347     Mg  0.68435707  0.27772293  0.25943437     1.58100
O1348       O  0.78255705  0.22956007  0.21279700    -0.89100
O1349       O  0.73330645  0.26843931  0.18751094    -0.76400
C1350       C  0.73794750  0.17274429  0.33571844     0.91700
O1351       O  0.74507799  0.31070543  0.28410678    -0.76200
O1352       O  0.71990296  0.19281606  0.33808332    -0.83700
Mg1353     Mg  0.74643550  0.31898072  0.23606375     1.58000
C1354       C  0.81499104  0.15388501  0.24777565     0.91700
O1355       O  0.74801981  0.33335699  0.19003726    -0.82000
H1356       H  0.76473128  0.20848265  0.18076415    -0.07300
C1357       C  0.78911732  0.22809034  0.29896445     0.86600
O1358       O  0.68388420  0.23021633  0.24974546    -0.76500
O1359       O  0.78193247  0.29025412  0.23044614    -0.89300
O1360       O  0.82216585  0.17624828  0.23435432    -0.82100
C1361       C  0.85219561  0.24997610  0.18911617     0.91800
C1362       C  0.76467672  0.33147066  0.16867194     0.91600
Mg1363     Mg  0.75533082  0.18367134  0.26784060     1.58000
O1364       O  0.75427867  0.17031973  0.31415365    -0.82000
O1365       O  0.75574964  0.19200056  0.21963713    -0.76200
O1366       O  0.83312077  0.26916247  0.18604175    -0.82100
O1367       O  0.70933985  0.34925401  0.24051686    -0.83800
O1368       O  0.66844934  0.23368120  0.31751077    -0.82100
C1369       C  0.76784039  0.21000335  0.20336483     0.86100
O1370       O  0.71984581  0.21228399  0.27340799    -0.89200
O1371       O  0.78485940  0.21765587  0.27542166    -0.89400
O1372       O  0.76838079  0.23581807  0.31488285    -0.76400
Mg1373     Mg  0.78301140  0.26923905  0.19015180     1.58000
O1374       O  0.84944582  0.23049231  0.20752783    -0.83800
H1375       H  0.69067969  0.27352006  0.19637315    -0.07500
O1376       O  0.71797369  0.27328545  0.29020557    -0.89100
H1377       H  0.73443876  0.29463975  0.32272869    -0.07300
H1378       H  0.69321438  0.18839597  0.25052693    -0.07500
C1379       C  0.73219882  0.29297039  0.30003262     0.86000
C1380       C  0.71264167  0.27578372  0.20364904     0.86600
C1381       C  0.69874382  0.20926014  0.25788079     0.86700
H1382       H  0.81105858  0.23118668  0.30599502    -0.07500
O1383       O  0.81836990  0.27157821  0.25282373    -0.76500
Mg1384     Mg  0.71857165  0.23417184  0.31317897     1.58000
H1385       H  0.80925637  0.31347435  0.25327135    -0.07500
C1386       C  0.68588856  0.34778308  0.25444375     0.91700
O1387       O  0.65065046  0.27024043  0.29341091    -0.83700
C1388       C  0.64824126  0.25129119  0.31244292     0.91700
O1389       O  0.78273663  0.31141034  0.16613728    -0.83700
Mg1390     Mg  0.81681362  0.22403865  0.24268506     1.58200
O1391       O  0.67787030  0.32523599  0.26704375    -0.82100
O1392       O  0.79240735  0.15286836  0.26310971    -0.83800
O1393       O  0.72925220  0.50023823  0.44895513    -0.89300
C1394       C  0.73445810  0.06272054  0.00799027     0.86700
Mg1395     Mg  0.70813091  0.46082428  0.45869700     1.58100
O1396       O  0.79883491  0.02444836  0.49779572    -0.89100
O1397       O  0.77236398  0.01459565  0.43654229    -0.76400
C1398       C  0.75719104  0.41935469  0.08393072     0.91700
O1399       O  0.68212169  0.01675862  0.49672384    -0.76200
O1400       O  0.73389322  0.42017745  0.06982181    -0.83700
Mg1401     Mg  0.70511788  0.03821405  0.45921142     1.58000
C1402       C  0.84706405  0.49994648  0.06788326     0.91700
O1403       O  0.72222017  0.06610777  0.42222171    -0.82000
H1404       H  0.83091891  0.51163956  0.47251614    -0.07300
C1405       C  0.75112612  0.00124574  0.06616862     0.86600
O1406       O  0.75096718  0.43938190  0.46997761    -0.76500
O1407       O  0.74066543  0.05093119  0.48549883    -0.89300
O1408       O  0.83653406  0.02200446  0.05642086    -0.82100
C1409       C  0.81327293  0.09737910  0.00997947     0.91800
C1410       C  0.74387075  0.08214133  0.41721529     0.91600
Mg1411     Mg  0.79591329  0.46152781  0.03992821     1.58000
O1412       O  0.77889402  0.43496272  0.07781500    -0.82000
O1413       O  0.81807998  0.48260904  0.00172583    -0.76200
O1414       O  0.79821223  0.09137359  0.48840632    -0.82100
O1415       O  0.66749531  0.02376619  0.43156734    -0.83800
O1416       O  0.70034768  0.40877756  0.01226625    -0.82100
C1417       C  0.81670873  0.50675414  0.49012022     0.86100
O1418       O  0.75985748  0.44843695  0.01447438    -0.89200
O1419       O  0.77231563  0.99959146  0.05030831    -0.89400
O1420       O  0.72898681  0.48591213  0.06276066    -0.76400
Mg1421     Mg  0.78288935  0.05183725  0.46540866     1.58000
O1422       O  0.81567645  0.08036251  0.03074696    -0.83800
H1423       H  0.75076697  0.48341589  0.41639591    -0.07500
O1424       O  0.70202174  0.47537484  0.00154769    -0.89100
H1425       H  0.66896941  0.98774569  0.02582389    -0.07300
H1426       H  0.78531114  0.42359000  0.49119674    -0.07500
C1427       C  0.68362337  0.99277383  0.00861175     0.86000
C1428       C  0.75045036  0.49895521  0.43305259     0.86600
C1429       C  0.76602812  0.43635598  0.49214254     0.86700
H1430       H  0.75097958  0.01696550  0.08265565    -0.07500
O1431       O  0.74987074  0.05990633  0.02996787    -0.76500
Mg1432     Mg  0.71764597  0.44835343  0.03468978     1.58000
H1433       H  0.71495041  0.07513402  0.00921083    -0.07500
C1434       C  0.65511399  0.99976397  0.42967332     0.91700
O1435       O  0.68491071  0.41951661  0.46899893    -0.83700
C1436       C  0.68577702  0.40287548  0.49024616     0.91700
O1437       O  0.76696274  0.08067723  0.43142438    -0.83700
Mg1438     Mg  0.79316037  0.03884785  0.04065143     1.58200
O1439       O  0.66523614  0.47778296  0.44166386    -0.82100
O1440       O  0.83451277  0.47599411  0.06637128    -0.83800
C1441       C  0.78771131  0.36276132  0.13196704    -0.14300
C1442       C  0.76298952  0.35389343  0.14689663     0.07800
C1443       C  0.73668363  0.36778938  0.14208437    -0.14300
C1444       C  0.73490362  0.38950011  0.12204470    -0.14300
C1445       C  0.75958447  0.39835730  0.10703979     0.07800
C1446       C  0.78609332  0.38505502  0.11245835    -0.14300
H1447       H  0.80832062  0.35269896  0.13565019     0.11800
H1448       H  0.71733980  0.36151646  0.15351097     0.11800
H1449       H  0.71420275  0.39932669  0.11819937     0.11800
H1450       H  0.80538117  0.39128759  0.10093091     0.11800
C1451       C  0.71505450  0.14271388  0.37344830    -0.14300
C1452       C  0.73959910  0.15058029  0.35767992     0.07800
C1453       C  0.76532999  0.13535671  0.36121375    -0.14300
C1454       C  0.76654701  0.11275513  0.38021025    -0.14300
C1455       C  0.74185120  0.10441924  0.39545398     0.07800
C1456       C  0.71608603  0.11957684  0.39195806    -0.14300
H1457       H  0.69491461  0.15397291  0.37091143     0.11800
H1458       H  0.78456293  0.14097635  0.34927702     0.11800
H1459       H  0.78676684  0.10165673  0.38289273     0.11800
H1460       H  0.69696089  0.11392799  0.40403696     0.11800
C1461       C  0.85966561  0.15615285  0.48060705    -0.14300
C1462       C  0.87544708  0.16402403  0.50454836     0.07800
C1463       C  0.86707997  0.15325799  0.03121039    -0.14300
C1464       C  0.84521138  0.13295518  0.03347463    -0.14300
C1465       C  0.83090003  0.12348754  0.00919081     0.07800
C1466       C  0.83738973  0.13633778  0.48295224    -0.14300
H1467       H  0.86540118  0.16433984  0.45986451     0.11800
H1468       H  0.87876372  0.15903361  0.05010548     0.11800
H1469       H  0.84061784  0.12356808  0.05397580     0.11800
H1470       H  0.82675151  0.12956509  0.46379863     0.11800
C1471       C  0.63714631  0.34490747  0.01873068    -0.14300
C1472       C  0.62192098  0.33686263  0.99445357     0.07800
C1473       C  0.63075215  0.34791658  0.46803964    -0.14300
C1474       C  0.65284000  0.36815127  0.46626594    -0.14300
C1475       C  0.66697940  0.37737034  0.49080462     0.07800
C1476       C  0.65957382  0.36468377  0.01689425    -0.14300
H1477       H  0.63102313  0.33667652  0.03934830     0.11800
H1478       H  0.61946051  0.34218423  0.44890289     0.11800
H1479       H  0.65795203  0.37748528  0.44585837     0.11800
H1480       H  0.66987102  0.37132626  0.03627164     0.11800
C1481       C  0.59206153  0.22769736  0.36603684    -0.14300
C1482       C  0.58086622  0.25377539  0.37500684     0.07800
C1483       C  0.58921484  0.27839894  0.36047634    -0.14300
C1484       C  0.60944806  0.27712872  0.33837801    -0.14300
C1485       C  0.62237442  0.25133183  0.33099702     0.07800
C1486       C  0.61295883  0.22654193  0.34455648    -0.14300
H1487       H  0.58614881  0.20835126  0.37693456     0.11800
H1488       H  0.58094041  0.29874290  0.36691647     0.11800
H1489       H  0.61647593  0.29662083  0.32841867     0.11800
H1490       H  0.62257619  0.20641811  0.33930666     0.11800
C1491       C  0.90636714  0.27158557  0.13265493    -0.14300
C1492       C  0.91671354  0.24521615  0.12354529     0.07800
C1493       C  0.90808439  0.22086659  0.13840108    -0.14300
C1494       C  0.88873043  0.22277808  0.16123719    -0.14300
C1495       C  0.87695679  0.24897916  0.16911548     0.07800
C1496       C  0.88639092  0.27340368  0.15490912    -0.14300
H1497       H  0.91242235  0.29074085  0.12149132     0.11800
H1498       H  0.91564125  0.20029579  0.13184653     0.11800
H1499       H  0.88161063  0.20352454  0.17159745     0.11800
H1500       H  0.87760513  0.29382195  0.16040194     0.11800
C1501       C  0.85917948  0.09129984  0.27243212    -0.14300
C1502       C  0.87857404  0.08792300  0.24976508     0.07800
C1503       C  0.87505402  0.10462457  0.22530711    -0.17900
C1504       C  0.85363035  0.12534125  0.22413075    -0.14300
C1505       C  0.83465788  0.12925026  0.24704939     0.07800
C1506       C  0.83712550  0.11146561  0.27089888    -0.14300
H1507       H  0.86145361  0.07876585  0.29152623     0.11800
H1508       H  0.88988661  0.10269515  0.20760942     0.11800
H1509       H  0.85238557  0.13882076  0.20558476     0.11800
H1510       H  0.82302064  0.11422238  0.28903975     0.11800
C1511       C  0.62566335  0.39711361  0.27477673    -0.14300
C1512       C  0.62150632  0.41210668  0.24933013     0.07800
C1513       C  0.64057109  0.40772651  0.22662058    -0.14300
C1514       C  0.66301612  0.38816865  0.22914885    -0.14300
C1515       C  0.66609782  0.37207055  0.25407616     0.07800
C1516       C  0.64744510  0.37695681  0.27696684    -0.14300
H1517       H  0.61106099  0.39988203  0.29253915     0.11800
H1518       H  0.63774404  0.41896364  0.20680538     0.11800
H1519       H  0.67690402  0.38442784  0.21102873     0.11800
H1520       H  0.64922889  0.36463858  0.29626539     0.11800
C1521       C  0.60122780  0.46703932  0.37935206    -0.14300
C1522       C  0.58586447  0.49072427  0.36985690     0.07800
C1523       C  0.59159390  0.51706104  0.38238389    -0.14300
C1524       C  0.61332306  0.01994708  0.40263180    -0.14300
C1525       C  0.62942882  0.99646085  0.41131847     0.07800
C1526       C  0.62254064  0.96982799  0.40006017    -0.14300
H1527       H  0.59748221  0.44652603  0.37008288     0.11800
H1528       H  0.58035283  0.53584067  0.37542813     0.11800
H1529       H  0.61808145  0.04070245  0.41087046     0.11800
H1530       H  0.63467335  0.95129020  0.40616191     0.11800
C1531       C  0.91133202  0.48225838  0.11391290    -0.14300
C1532       C  0.91657279  0.00832707  0.12720134     0.07800
C1533       C  0.90142753  0.03216881  0.11778833    -0.14300
C1534       C  0.88026499  0.02966022  0.09692469    -0.14300
C1535       C  0.87333908  0.50315506  0.08541601     0.07800
C1536       C  0.88973556  0.47964333  0.09348510    -0.14300
H1537       H  0.92261533  0.46340376  0.12058948     0.11800
H1538       H  0.90495883  0.05252244  0.12747603     0.11800
H1539       H  0.86804468  0.04824595  0.09115143     0.11800
H1540       H  0.88508271  0.45902009  0.08486774     0.11800
C1541       C  0.97875842  0.38512159  0.13408077    -0.14300
C1542       C  0.00493016  0.39510877  0.14508476     0.07800
C1543       C  0.53095310  0.38644713  0.13236231    -0.14300
C1544       C  0.53069006  0.36812720  0.10910117    -0.14300
C1545       C  0.00440685  0.35794363  0.09839226     0.07800
C1546       C  0.97850200  0.36674545  0.11117413    -0.14300
H1547       H  0.95831911  0.39155563  0.14320251     0.11800
H1548       H  0.55143549  0.39421536  0.14005903     0.11800
H1549       H  0.55101586  0.36140989  0.09996277     0.11800
H1550       H  0.95786913  0.35918611  0.10363105     0.11800
C1551       C  0.96787569  0.11257599  0.36566628    -0.14300
C1552       C  0.49403089  0.10115815  0.35574879     0.07800
C1553       C  0.51969669  0.10815719  0.36987204    -0.14300
C1554       C  0.51943794  0.12681070  0.39258382    -0.14300
C1555       C  0.49348684  0.13879593  0.40209638     0.07800
C1556       C  0.96759064  0.13111934  0.38875333    -0.14300
H1557       H  0.94767281  0.10714552  0.35564414     0.11800
H1558       H  0.54020243  0.09943509  0.36318667     0.11800
H1559       H  0.53973855  0.13229971  0.40241022     0.11800
H1560       H  0.94729557  0.14027850  0.39545217     0.11800
O1561       O  0.54894270  0.00065801  0.77207608    -0.89300
C1562       C  0.00010619  0.43309418  0.75141457     0.86700
Mg1563     Mg  0.53352545  0.03282270  0.79988943     1.58100
O1564       O  0.50823566  0.48497228  0.69798005    -0.89100
O1565       O  0.56755787  0.49633723  0.72979491    -0.76400
C1566       C  0.90407371  0.06924252  0.75206948     0.91700
O1567       O  0.50153485  0.46883658  0.81063442    -0.76200
O1568       O  0.91677798  0.06652498  0.77585477    -0.83700
Mg1569     Mg  0.54391178  0.45805755  0.78745408     1.58000
C1570       C  0.93440925  0.00937275  0.65323476     0.91700
O1571       O  0.58609016  0.44187744  0.76869091    -0.82000
H1572       H  0.53313062  0.00826043  0.67219553    -0.07300
C1573       C  0.93274175  0.49062035  0.74427117     0.86600
O1574       O  0.52168137  0.06171539  0.76276491    -0.76500
O1575       O  0.52160462  0.44835734  0.74886577    -0.89300
O1576       O  0.94947948  0.48783484  0.65944292    -0.82100
C1577       C  0.00441057  0.41681599  0.66753475     0.91800
C1578       C  0.59577081  0.43013648  0.74640619     0.91600
Mg1579     Mg  0.95624067  0.04061614  0.71104260     1.58000
O1580       O  0.91382028  0.05804121  0.72944353    -0.82000
O1581       O  0.99878606  0.02924256  0.68852110    -0.76200
O1582       O  0.52673431  0.42145400  0.68259314    -0.82100
O1583       O  0.56877014  0.46831921  0.82784427    -0.83800
O1584       O  0.97269002  0.07605562  0.81700260    -0.82100
C1585       C  0.51406122  0.00724670  0.68547132     0.86100
O1586       O  0.97804473  0.05000944  0.75004491    -0.89200
O1587       O  0.95062963  0.49796595  0.72622648    -0.89400
O1588       O  0.93191205  0.00198665  0.76847614    -0.76400
Mg1589     Mg  0.54432661  0.45877267  0.70953400     1.58000
O1590       O  0.98156808  0.43131011  0.67018375    -0.83800
H1591       H  0.58120698  0.02528967  0.75824435    -0.07500
O1592       O  0.99144753  0.01283695  0.80067659    -0.89100
H1593       H  0.96703477  0.48959948  0.82697005    -0.07300
H1594       H  0.49936423  0.08224480  0.73217619    -0.07500
C1595       C  0.98595802  0.49065827  0.81349607     0.86000
C1596       C  0.56666185  0.00801315  0.75386254     0.86600
C1597       C  0.49934368  0.06557213  0.74788880     0.86700
H1598       H  0.91805187  0.47353172  0.73964530    -0.07500
O1599       O  0.97769314  0.43697307  0.73663670    -0.76500
Mg1600     Mg  0.95520866  0.03918335  0.78919562     1.58000
H1601       H  0.99997264  0.41670445  0.76742713    -0.07500
C1602       C  0.56692334  0.48918588  0.84461125     0.91700
O1603       O  0.51773657  0.06588412  0.82951110    -0.83700
C1604       C  0.49482895  0.08020177  0.83249955     0.91700
O1605       O  0.58279224  0.43174784  0.72270786    -0.83700
Mg1606     Mg  0.96607745  0.46530899  0.69899738     1.58200
O1607       O  0.55083189  0.01019545  0.83913951    -0.82100
O1608       O  0.93246756  0.03037590  0.66988721    -0.83800
O1609       O  0.50733621  0.26610305  0.54949118    -0.89300
C1610       C  0.93218704  0.25797996  0.00445917     0.86700
Mg1611     Mg  0.54340246  0.29199732  0.53593795     1.58100
O1612       O  0.97715762  0.19840938  0.50189086    -0.89100
O1613       O  0.99806130  0.22228895  0.56149492    -0.76400
C1614       C  0.56379710  0.25519532  0.90158732     0.91700
O1615       O  0.97678143  0.31209055  0.50906017    -0.76200
O1616       O  0.56535216  0.27715526  0.91694938    -0.83700
Mg1617     Mg  0.96511354  0.28558723  0.54816322     1.58000
C1618       C  0.49432802  0.16200448  0.92294551     0.91700
O1619       O  0.94793523  0.26509591  0.58891274    -0.82000
H1620       H  0.49893410  0.16796463  0.52182224    -0.07300
C1621       C  0.98464581  0.25388706  0.93539597     0.86600
O1622       O  0.56672435  0.25376386  0.51717247    -0.76500
O1623       O  0.94975560  0.25159201  0.52292838    -0.89300
O1624       O  0.97204841  0.16774483  0.93792483    -0.82100
C1625       C  0.90239732  0.18064724  0.00156189     0.91800
C1626       C  0.93371304  0.24344318  0.59688578     0.91600
Mg1627     Mg  0.53285933  0.21283904  0.95037289     1.58000
O1628       O  0.54980718  0.23334263  0.90947376    -0.82000
O1629       O  0.52114061  0.18673150  0.98972024    -0.76200
O1630       O  0.91241704  0.19276831  0.52344790    -0.82100
O1631       O  0.98078740  0.32084893  0.57502694    -0.83800
O1632       O  0.58552657  0.30730355  0.97488220    -0.82100
C1633       C  0.49872391  0.18346465  0.50494678     0.86100
O1634       O  0.54822291  0.24725602  0.97536178    -0.89200
O1635       O  0.99067249  0.23223170  0.94878745    -0.89400
O1636       O  0.49974844  0.27620404  0.93715712    -0.76400
Mg1637     Mg  0.95532293  0.20981689  0.54040488     1.58000
O1638       O  0.91576160  0.18098038  0.97783712    -0.83800
H1639       H  0.53251484  0.24431966  0.57591457    -0.07500
O1640       O  0.52069892  0.30048408  0.99667388    -0.89100
H1641       H  0.99888995  0.33109154  0.97702859    -0.07300
H1642       H  0.58074811  0.22379223  0.48990640    -0.07500
C1643       C  0.99913804  0.31545663  0.99377812     0.86000
C1644       C  0.51331084  0.24452639  0.56303024     0.86600
C1645       C  0.56602317  0.24104684  0.49366043     0.86700
H1646       H  0.96545643  0.25410978  0.92248995    -0.07500
O1647       O  0.93154893  0.24528046  0.98092999    -0.76500
Mg1648     Mg  0.54244793  0.28912354  0.95808684     1.58000
H1649       H  0.91764018  0.27541048  0.00806963    -0.07500
C1650       C  0.00360953  0.33559872  0.57657922     0.91700
O1651       O  0.58187244  0.31839237  0.52066659    -0.83700
C1652       C  0.59523962  0.31948239  0.49694719     0.91700
O1653       O  0.93204539  0.22147117  0.58157951    -0.83700
Mg1654     Mg  0.95454341  0.20671615  0.96252077     1.58200
O1655       O  0.52579797  0.33052871  0.56121606    -0.82100
O1656       O  0.51724494  0.17672890  0.92405323    -0.83800
O1657       O  0.71703995  0.28494464  0.72766510    -0.89300
C1658       C  0.80337220  0.29281087  0.74562784     0.86700
Mg1659     Mg  0.68435712  0.27772289  0.75943437     1.58100
O1660       O  0.78255716  0.22956011  0.71279693    -0.89100
O1661       O  0.73330652  0.26843928  0.68751090    -0.76400
C1662       C  0.73794755  0.17274434  0.83571851     0.91700
O1663       O  0.74507808  0.31070538  0.78410681    -0.76200
O1664       O  0.71990300  0.19281611  0.83808344    -0.83700
Mg1665     Mg  0.74643550  0.31898069  0.73606374     1.58000
C1666       C  0.81499104  0.15388507  0.74777561     0.91700
O1667       O  0.74801974  0.33335699  0.69003728    -0.82000
H1668       H  0.76473119  0.20848271  0.68076420    -0.07300
C1669       C  0.78911733  0.22809035  0.79896455     0.86600
O1670       O  0.68388429  0.23021629  0.74974541    -0.76500
O1671       O  0.78193242  0.29025405  0.73044610    -0.89300
O1672       O  0.82216584  0.17624837  0.73435433    -0.82100
C1673       C  0.85219555  0.24997606  0.68911610     0.91800
C1674       C  0.76467667  0.33147068  0.66867196     0.91600
Mg1675     Mg  0.75533085  0.18367137  0.76784062     1.58000
O1676       O  0.75427867  0.17031977  0.81415368    -0.82000
O1677       O  0.75574969  0.19200069  0.71963720    -0.76200
O1678       O  0.83312073  0.26916245  0.68604162    -0.82100
O1679       O  0.70933984  0.34925401  0.74051684    -0.83800
O1680       O  0.66844935  0.23368119  0.81751087    -0.82100
C1681       C  0.76784041  0.21000343  0.70336484     0.86100
O1682       O  0.71984586  0.21228402  0.77340802    -0.89200
O1683       O  0.78485940  0.21765591  0.77542173    -0.89400
O1684       O  0.76838080  0.23581807  0.81488294    -0.76400
Mg1685     Mg  0.78301141  0.26923905  0.69015174     1.58000
O1686       O  0.84944570  0.23049228  0.70752777    -0.83800
H1687       H  0.69067977  0.27351994  0.69637306    -0.07500
O1688       O  0.71797370  0.27328548  0.79020565    -0.89100
H1689       H  0.73443887  0.29463973  0.82272875    -0.07300
H1690       H  0.69321442  0.18839593  0.75052702    -0.07500
C1691       C  0.73219888  0.29297039  0.80003268     0.86000
C1692       C  0.71264171  0.27578367  0.70364898     0.86600
C1693       C  0.69874389  0.20926012  0.75788081     0.86700
H1694       H  0.81105857  0.23118663  0.80599517    -0.07500
O1695       O  0.81836981  0.27157819  0.75282377    -0.76500
Mg1696     Mg  0.71857168  0.23417185  0.81317904     1.58000
H1697       H  0.80925633  0.31347434  0.75327120    -0.07500
C1698       C  0.68588854  0.34778305  0.75444370     0.91700
O1699       O  0.65065052  0.27024040  0.79341096    -0.83700
C1700       C  0.64824128  0.25129118  0.81244299     0.91700
O1701       O  0.78273659  0.31141036  0.66613729    -0.83700
Mg1702     Mg  0.81681358  0.22403868  0.74268509     1.58200
O1703       O  0.67787028  0.32523594  0.76704369    -0.82100
O1704       O  0.79240734  0.15286835  0.76310965    -0.83800
O1705       O  0.72925229  0.50023821  0.94895516    -0.89300
C1706       C  0.73445814  0.06272057  0.50799030     0.86700
Mg1707     Mg  0.70813091  0.46082426  0.95869702     1.58100
O1708       O  0.79883483  0.02444835  0.99779573    -0.89100
O1709       O  0.77236404  0.01459560  0.93654230    -0.76400
C1710       C  0.75719101  0.41935465  0.58393070     0.91700
O1711       O  0.68212158  0.01675861  0.99672393    -0.76200
O1712       O  0.73389319  0.42017742  0.56982178    -0.83700
Mg1713     Mg  0.70511782  0.03821403  0.95921147     1.58000
C1714       C  0.84706403  0.49994647  0.56788330     0.91700
O1715       O  0.72222016  0.06610781  0.92222179    -0.82000
H1716       H  0.83091903  0.51163950  0.97251624    -0.07300
C1717       C  0.75112616  0.00124579  0.56616863     0.86600
O1718       O  0.75096714  0.43938186  0.96997764    -0.76500
O1719       O  0.74066538  0.05093116  0.98549880    -0.89300
O1720       O  0.83653402  0.02200445  0.55642097    -0.82100
C1721       C  0.81327292  0.09737913  0.50997948     0.91800
C1722       C  0.74387079  0.08214130  0.91721528     0.91600
Mg1723     Mg  0.79591327  0.46152781  0.53992819     1.58000
O1724       O  0.77889397  0.43496272  0.57781500    -0.82000
O1725       O  0.81807999  0.48260906  0.50172576    -0.76200
O1726       O  0.79821229  0.09137353  0.98840628    -0.82100
O1727       O  0.66749522  0.02376617  0.93156743    -0.83800
O1728       O  0.70034776  0.40877754  0.51226621    -0.82100
C1729       C  0.81670879  0.50675413  0.99012029     0.86100
O1730       O  0.75985749  0.44843695  0.51447436    -0.89200
O1731       O  0.77231570  0.99959145  0.55030835    -0.89400
O1732       O  0.72898684  0.48591207  0.56276069    -0.76400
Mg1733     Mg  0.78288934  0.05183721  0.96540865     1.58000
O1734       O  0.81567653  0.08036248  0.53074691    -0.83800
H1735       H  0.75076700  0.48341592  0.91639582    -0.07500
O1736       O  0.70202175  0.47537490  0.50154764    -0.89100
H1737       H  0.66896945  0.98774567  0.52582373    -0.07300
H1738       H  0.78531118  0.42359008  0.99119675    -0.07500
C1739       C  0.68362344  0.99277382  0.50861164     0.86000
C1740       C  0.75045043  0.49895522  0.93305260     0.86600
C1741       C  0.76602811  0.43635600  0.99214256     0.86700
H1742       H  0.75097961  0.01696558  0.58265558    -0.07500
O1743       O  0.74987081  0.05990641  0.52996789    -0.76500
Mg1744     Mg  0.71764600  0.44835343  0.53468974     1.58000
H1745       H  0.71495038  0.07513397  0.50921087    -0.07500
C1746       C  0.65511391  0.99976395  0.92967340     0.91700
O1747       O  0.68491070  0.41951660  0.96899893    -0.83700
C1748       C  0.68577699  0.40287548  0.99024616     0.91700
O1749       O  0.76696281  0.08067715  0.93142432    -0.83700
Mg1750     Mg  0.79316043  0.03884785  0.54065144     1.58200
O1751       O  0.66523611  0.47778293  0.94166392    -0.82100
O1752       O  0.83451275  0.47599410  0.56637128    -0.83800
C1753       C  0.78771128  0.36276134  0.63196710    -0.14300
C1754       C  0.76298948  0.35389345  0.64689666     0.07800
C1755       C  0.73668360  0.36778940  0.64208436    -0.14300
C1756       C  0.73490359  0.38950005  0.62204463    -0.14300
C1757       C  0.75958446  0.39835725  0.60703976     0.07800
C1758       C  0.78609334  0.38505507  0.61245843    -0.14300
H1759       H  0.80832058  0.35269899  0.63565027     0.11800
H1760       H  0.71733974  0.36151651  0.65351097     0.11800
H1761       H  0.71420271  0.39932660  0.61819922     0.11800
H1762       H  0.80538122  0.39128769  0.60093110     0.11800
C1763       C  0.71505463  0.14271394  0.87344840    -0.14300
C1764       C  0.73959919  0.15058031  0.85767996     0.07800
C1765       C  0.76533006  0.13535665  0.86121369    -0.14300
C1766       C  0.76654708  0.11275508  0.88021021    -0.14300
C1767       C  0.74185127  0.10441923  0.89545398     0.07800
C1768       C  0.71608613  0.11957686  0.89195810    -0.14300
H1769       H  0.69491474  0.15397299  0.87091158     0.11800
H1770       H  0.78456298  0.14097625  0.84927691     0.11800
H1771       H  0.78676690  0.10165665  0.88289265     0.11800
H1772       H  0.69696098  0.11392798  0.90403697     0.11800
C1773       C  0.85966560  0.15615286  0.98060705    -0.14300
C1774       C  0.87544704  0.16402400  0.00454840     0.07800
C1775       C  0.86707999  0.15325807  0.53121038    -0.14300
C1776       C  0.84521140  0.13295526  0.53347465    -0.14300
C1777       C  0.83090000  0.12348761  0.50919086     0.07800
C1778       C  0.83738976  0.13633773  0.98295220    -0.14300
H1779       H  0.86540115  0.16433995  0.95986456     0.11800
H1780       H  0.87876378  0.15903368  0.55010543     0.11800
H1781       H  0.84061792  0.12356813  0.55397585     0.11800
H1782       H  0.82675156  0.12956506  0.96379856     0.11800
C1783       C  0.63714630  0.34490748  0.51873070    -0.14300
C1784       C  0.62192100  0.33686265  0.49445356     0.07800
C1785       C  0.63075212  0.34791653  0.96803962    -0.14300
C1786       C  0.65283997  0.36815126  0.96626591    -0.14300
C1787       C  0.66697939  0.37737032  0.99080458     0.07800
C1788       C  0.65957380  0.36468379  0.51689429    -0.14300
H1789       H  0.63102310  0.33667650  0.53934831     0.11800
H1790       H  0.61946050  0.34218414  0.94890291     0.11800
H1791       H  0.65795196  0.37748526  0.94585833     0.11800
H1792       H  0.66987100  0.37132628  0.53627170     0.11800
C1793       C  0.59206148  0.22769745  0.86603687    -0.14300
C1794       C  0.58086620  0.25377548  0.87500689     0.07800
C1795       C  0.58921484  0.27839904  0.86047639    -0.14300
C1796       C  0.60944804  0.27712878  0.83837804    -0.14300
C1797       C  0.62237439  0.25133187  0.83099705     0.07800
C1798       C  0.61295875  0.22654199  0.84455650    -0.14300
H1799       H  0.58614868  0.20835136  0.87693455     0.11800
H1800       H  0.58094040  0.29874301  0.86691651     0.11800
H1801       H  0.61647594  0.29662088  0.82841866     0.11800
H1802       H  0.62257605  0.20641815  0.83930666     0.11800
C1803       C  0.90636716  0.27158557  0.63265493    -0.14300
C1804       C  0.91671355  0.24521615  0.62354528     0.07800
C1805       C  0.90808440  0.22086658  0.63840105    -0.14300
C1806       C  0.88873043  0.22277807  0.66123716    -0.14300
C1807       C  0.87695682  0.24897914  0.66911550     0.07800
C1808       C  0.88639099  0.27340367  0.65490919    -0.14300
H1809       H  0.91242231  0.29074084  0.62149131     0.11800
H1810       H  0.91564121  0.20029580  0.63184648     0.11800
H1811       H  0.88161056  0.20352449  0.67159733     0.11800
H1812       H  0.87760522  0.29382193  0.66040205     0.11800
C1813       C  0.85917946  0.09129998  0.77243218    -0.14300
C1814       C  0.87857401  0.08792304  0.74976513     0.07800
C1815       C  0.87505398  0.10462453  0.72530711    -0.17900
C1816       C  0.85363038  0.12534130  0.72413072    -0.14300
C1817       C  0.83465792  0.12925037  0.74704937     0.07800
C1818       C  0.83712548  0.11146576  0.77089886    -0.14300
H1819       H  0.86145353  0.07876605  0.79152634     0.11800
H1820       H  0.88988652  0.10269501  0.70760938     0.11800
H1821       H  0.85238562  0.13882076  0.70558471     0.11800
H1822       H  0.82302056  0.11422257  0.78903970     0.11800
C1823       C  0.62566334  0.39711361  0.77477673    -0.14300
C1824       C  0.62150628  0.41210661  0.74933008     0.07800
C1825       C  0.64057102  0.40772644  0.72662055    -0.14300
C1826       C  0.66301606  0.38816861  0.72914881    -0.14300
C1827       C  0.66609777  0.37207052  0.75407613     0.07800
C1828       C  0.64744509  0.37695679  0.77696682    -0.14300
H1829       H  0.61106103  0.39988209  0.79253914     0.11800
H1830       H  0.63774394  0.41896358  0.70680533     0.11800
H1831       H  0.67690396  0.38442780  0.71102873     0.11800
H1832       H  0.64922891  0.36463854  0.79626538     0.11800
C1833       C  0.60122782  0.46703933  0.87935204    -0.14300
C1834       C  0.58586449  0.49072428  0.86985683     0.07800
C1835       C  0.59159389  0.51706102  0.88238387    -0.14300
C1836       C  0.61332302  0.01994705  0.90263183    -0.14300
C1837       C  0.62942876  0.99646082  0.91131853     0.07800
C1838       C  0.62254062  0.96982796  0.90006023    -0.14300
H1839       H  0.59748225  0.44652606  0.87008285     0.11800
H1840       H  0.58035278  0.53584067  0.87542812     0.11800
H1841       H  0.61808134  0.04070240  0.91087056     0.11800
H1842       H  0.63467333  0.95129019  0.90616200     0.11800
C1843       C  0.91133200  0.48225838  0.61391294    -0.14300
C1844       C  0.91657273  0.00832703  0.62720136     0.07800
C1845       C  0.90142755  0.03216879  0.61778834    -0.14300
C1846       C  0.88026499  0.02966023  0.59692474    -0.14300
C1847       C  0.87333908  0.50315506  0.58541604     0.07800
C1848       C  0.88973560  0.47964333  0.59348508    -0.14300
H1849       H  0.92261529  0.46340375  0.62058957     0.11800
H1850       H  0.90495894  0.05252244  0.62747600     0.11800
H1851       H  0.86804472  0.04824595  0.59115146     0.11800
H1852       H  0.88508278  0.45902011  0.58486766     0.11800
C1853       C  0.97875847  0.38512174  0.63408068    -0.14300
C1854       C  0.00493023  0.39510880  0.64508473     0.07800
C1855       C  0.53095309  0.38644708  0.63236235    -0.14300
C1856       C  0.53069004  0.36812718  0.60910119    -0.14300
C1857       C  0.00440687  0.35794371  0.59839223     0.07800
C1858       C  0.97850203  0.36674556  0.61117408    -0.14300
H1859       H  0.95831918  0.39155582  0.64320240     0.11800
H1860       H  0.55143548  0.39421522  0.64005912     0.11800
H1861       H  0.55101584  0.36140980  0.59996284     0.11800
H1862       H  0.95786915  0.35918620  0.60363105     0.11800
C1863       C  0.96787569  0.11257595  0.86566630    -0.14300
C1864       C  0.49403089  0.10115813  0.85574877     0.07800
C1865       C  0.51969669  0.10815729  0.86987199    -0.14300
C1866       C  0.51943787  0.12681074  0.89258381    -0.14300
C1867       C  0.49348677  0.13879596  0.90209632     0.07800
C1868       C  0.96759068  0.13111939  0.88875331    -0.14300
H1869       H  0.94767280  0.10714545  0.85564424     0.11800
H1870       H  0.54020246  0.09943529  0.86318660     0.11800
H1871       H  0.53973845  0.13229971  0.90241031     0.11800
H1872       H  0.94729563  0.14027856  0.89545216     0.11800
O1873       O  0.54894266  0.50065806  0.27207609    -0.89300
C1874       C  0.00010617  0.93309427  0.25141459     0.86700
Mg1875     Mg  0.53352540  0.53282273  0.29988943     1.58100
O1876       O  0.50823567  0.98497228  0.19798002    -0.89100
O1877       O  0.56755792  0.99633727  0.22979490    -0.76400
C1878       C  0.90407373  0.56924254  0.25206947     0.91700
O1879       O  0.50153480  0.96883658  0.31063440    -0.76200
O1880       O  0.91677795  0.56652499  0.27585480    -0.83700
Mg1881     Mg  0.54391175  0.95805759  0.28745413     1.58000
C1882       C  0.93440927  0.50937268  0.15323478     0.91700
O1883       O  0.58609009  0.94187744  0.26869096    -0.82000
H1884       H  0.53313050  0.50826053  0.17219558    -0.07300
C1885       C  0.93274185  0.99062033  0.24427116     0.86600
O1886       O  0.52168130  0.56171536  0.26276488    -0.76500
O1887       O  0.52160455  0.94835742  0.24886584    -0.89300
O1888       O  0.94947947  0.98783487  0.15944293    -0.82100
C1889       C  0.00441063  0.91681603  0.16753477     0.91800
C1890       C  0.59577082  0.93013651  0.24640623     0.91600
Mg1891     Mg  0.95624072  0.54061615  0.21104262     1.58000
O1892       O  0.91382039  0.55804129  0.22944354    -0.82000
O1893       O  0.99878613  0.52924251  0.18852121    -0.76200
O1894       O  0.52673430  0.92145407  0.18259316    -0.82100
O1895       O  0.56877016  0.96831925  0.32784433    -0.83800
O1896       O  0.97269000  0.57605554  0.31700272    -0.82100
C1897       C  0.51406111  0.50724672  0.18547136     0.86100
O1898       O  0.97804474  0.55000952  0.25004496    -0.89200
O1899       O  0.95062972  0.99796596  0.22622646    -0.89400
O1900       O  0.93191205  0.50198671  0.26847613    -0.76400
Mg1901     Mg  0.54432663  0.95877270  0.20953404     1.58000
O1902       O  0.98156814  0.93131016  0.17018377    -0.83800
H1903       H  0.58120683  0.52528980  0.25824423    -0.07500
O1904       O  0.99144756  0.51283699  0.30067655    -0.89100
H1905       H  0.96703474  0.98959957  0.32696996    -0.07300
H1906       H  0.49936409  0.58224492  0.23217632    -0.07500
C1907       C  0.98595800  0.99065833  0.31349601     0.86000
C1908       C  0.56666177  0.50801321  0.25386251     0.86600
C1909       C  0.49934358  0.56557218  0.24788884     0.86700
H1910       H  0.91805202  0.97353166  0.23964529    -0.07500
O1911       O  0.97769317  0.93697315  0.23663670    -0.76500
Mg1912     Mg  0.95520866  0.53918337  0.28919565     1.58000
H1913       H  0.99997257  0.91670452  0.26742718    -0.07500
C1914       C  0.56692335  0.98918593  0.34461129     0.91700
O1915       O  0.51773655  0.56588414  0.32951112    -0.83700
C1916       C  0.49482893  0.58020179  0.33249957     0.91700
O1917       O  0.58279229  0.93174787  0.22270789    -0.83700
Mg1918     Mg  0.96607749  0.96530905  0.19899738     1.58200
O1919       O  0.55083192  0.51019551  0.33913952    -0.82100
O1920       O  0.93246757  0.53037584  0.16988723    -0.83800
O1921       O  0.50733624  0.76610302  0.04949124    -0.89300
C1922       C  0.93218702  0.75798000  0.50445918     0.86700
Mg1923     Mg  0.54340246  0.79199729  0.03593793     1.58100
O1924       O  0.97715760  0.69840946  0.00189084    -0.89100
O1925       O  0.99806126  0.72228890  0.06149485    -0.76400
C1926       C  0.56379715  0.75519530  0.40158732     0.91700
O1927       O  0.97678143  0.81209048  0.00906016    -0.76200
O1928       O  0.56535222  0.77715528  0.41694931    -0.83700
Mg1929     Mg  0.96511351  0.78558724  0.04816318     1.58000
C1930       C  0.49432809  0.66200451  0.42294552     0.91700
O1931       O  0.94793508  0.76509597  0.08891263    -0.82000
H1932       H  0.49893407  0.66796471  0.02182231    -0.07300
C1933       C  0.98464585  0.75388712  0.43539596     0.86600
O1934       O  0.56672436  0.75376388  0.01717236    -0.76500
O1935       O  0.94975564  0.75159206  0.02292833    -0.89300
O1936       O  0.97204838  0.66774493  0.43792475    -0.82100
C1937       C  0.90239733  0.68064727  0.50156186     0.91800
C1938       C  0.93371306  0.74344318  0.09688580     0.91600
Mg1939     Mg  0.53285935  0.71283907  0.45037291     1.58000
O1940       O  0.54980726  0.73334263  0.40947385    -0.82000
O1941       O  0.52114053  0.68673152  0.48972016    -0.76200
O1942       O  0.91241702  0.69276834  0.02344794    -0.82100
O1943       O  0.98078735  0.82084890  0.07502689    -0.83800
O1944       O  0.58552664  0.80730362  0.47488212    -0.82100
C1945       C  0.49872392  0.68346469  0.00494682     0.86100
O1946       O  0.54822296  0.74725603  0.47536185    -0.89200
O1947       O  0.99067254  0.73223177  0.44878747    -0.89400
O1948       O  0.49974839  0.77620412  0.43715711    -0.76400
Mg1949     Mg  0.95532293  0.70981692  0.04040488     1.58000
O1950       O  0.91576161  0.68098042  0.47783708    -0.83800
H1951       H  0.53251493  0.74431951  0.07591451    -0.07500
O1952       O  0.52069895  0.80048414  0.49667394    -0.89100
H1953       H  0.99888992  0.83109157  0.47702862    -0.07300
H1954       H  0.58074805  0.72379215  0.98990640    -0.07500
C1955       C  0.99913800  0.81545667  0.49377815     0.86000
C1956       C  0.51331088  0.74452631  0.06303023     0.86600
C1957       C  0.56602317  0.74104677  0.99366037     0.86700
H1958       H  0.96545645  0.75410987  0.42249001    -0.07500
O1959       O  0.93154901  0.74528054  0.48093000    -0.76500
Mg1960     Mg  0.54244797  0.78912358  0.45808684     1.58000
H1961       H  0.91764016  0.77541052  0.50806960    -0.07500
C1962       C  0.00360951  0.83559864  0.07657923     0.91700
O1963       O  0.58187240  0.81839231  0.02066665    -0.83700
C1964       C  0.59523953  0.81948240  0.99694723     0.91700
O1965       O  0.93204549  0.72147112  0.08157961    -0.83700
Mg1966     Mg  0.95454346  0.70671621  0.46252079     1.58200
O1967       O  0.52579805  0.83052871  0.06121608    -0.82100
O1968       O  0.51724501  0.67672892  0.42405324    -0.83800
O1969       O  0.71703993  0.78494468  0.22766513    -0.89300
C1970       C  0.80337224  0.79281083  0.24562789     0.86700
Mg1971     Mg  0.68435710  0.77772297  0.25943437     1.58100
O1972       O  0.78255704  0.72956007  0.21279698    -0.89100
O1973       O  0.73330640  0.76843921  0.18751097    -0.76400
C1974       C  0.73794745  0.67274430  0.33571843     0.91700
O1975       O  0.74507806  0.81070537  0.28410676    -0.76200
O1976       O  0.71990294  0.69281609  0.33808334    -0.83700
Mg1977     Mg  0.74643552  0.81898070  0.23606374     1.58000
C1978       C  0.81499101  0.65388503  0.24777565     0.91700
O1979       O  0.74801984  0.83335700  0.19003728    -0.82000
H1980       H  0.76473121  0.70848265  0.18076416    -0.07300
C1981       C  0.78911733  0.72809038  0.29896445     0.86600
O1982       O  0.68388425  0.73021639  0.24974543    -0.76500
O1983       O  0.78193247  0.79025410  0.23044613    -0.89300
O1984       O  0.82216581  0.67624830  0.23435432    -0.82100
C1985       C  0.85219561  0.74997605  0.18911616     0.91800
C1986       C  0.76467673  0.83147065  0.16867194     0.91600
Mg1987     Mg  0.75533081  0.68367136  0.26784061     1.58000
O1988       O  0.75427863  0.67031976  0.31415365    -0.82000
O1989       O  0.75574967  0.69200054  0.21963714    -0.76200
O1990       O  0.83312078  0.76916245  0.18604176    -0.82100
O1991       O  0.70933987  0.84925403  0.24051685    -0.83800
O1992       O  0.66844936  0.73368122  0.31751077    -0.82100
C1993       C  0.76784038  0.71000335  0.20336483     0.86100
O1994       O  0.71984581  0.71228401  0.27340801    -0.89200
O1995       O  0.78485939  0.71765590  0.27542166    -0.89400
O1996       O  0.76838083  0.73581811  0.31488286    -0.76400
Mg1997     Mg  0.78301137  0.76923901  0.19015181     1.58000
O1998       O  0.84944576  0.73049225  0.20752780    -0.83800
H1999       H  0.69067965  0.77352009  0.19637314    -0.07500
O2000       O  0.71797368  0.77328545  0.29020559    -0.89100
H2001       H  0.73443883  0.79463971  0.32272869    -0.07300
H2002       H  0.69321436  0.68839601  0.25052695    -0.07500
C2003       C  0.73219885  0.79297036  0.30003262     0.86000
C2004       C  0.71264163  0.77578371  0.20364903     0.86600
C2005       C  0.69874383  0.70926019  0.25788080     0.86700
H2006       H  0.81105863  0.73118671  0.30599501    -0.07500
O2007       O  0.81836984  0.77157814  0.25282372    -0.76500
Mg2008     Mg  0.71857166  0.73417186  0.31317898     1.58000
H2009       H  0.80925637  0.81347430  0.25327140    -0.07500
C2010       C  0.68588859  0.84778310  0.25444376     0.91700
O2011       O  0.65065053  0.77024048  0.29341091    -0.83700
C2012       C  0.64824129  0.75129123  0.31244291     0.91700
O2013       O  0.78273658  0.81141028  0.16613726    -0.83700
Mg2014     Mg  0.81681358  0.72403863  0.24268505     1.58200
O2015       O  0.67787036  0.82523602  0.26704380    -0.82100
O2016       O  0.79240732  0.65286838  0.26310971    -0.83800
O2017       O  0.72925224  0.00023819  0.44895515    -0.89300
C2018       C  0.73445816  0.56272056  0.00799025     0.86700
Mg2019     Mg  0.70813094  0.96082423  0.45869700     1.58100
O2020       O  0.79883488  0.52444835  0.49779572    -0.89100
O2021       O  0.77236395  0.51459567  0.43654230    -0.76400
C2022       C  0.75719104  0.91935469  0.08393070     0.91700
O2023       O  0.68212164  0.51675867  0.49672384    -0.76200
O2024       O  0.73389322  0.92017748  0.06982180    -0.83700
Mg2025     Mg  0.70511784  0.53821408  0.45921142     1.58000
C2026       C  0.84706404  0.99994650  0.06788326     0.91700
O2027       O  0.72222009  0.56610780  0.42222173    -0.82000
H2028       H  0.83091892  0.01163954  0.47251613    -0.07300
C2029       C  0.75112617  0.50124579  0.06616860     0.86600
O2030       O  0.75096718  0.93938190  0.46997762    -0.76500
O2031       O  0.74066543  0.55093111  0.48549884    -0.89300
O2032       O  0.83653407  0.52200445  0.05642088    -0.82100
C2033       C  0.81327295  0.59737911  0.00997947     0.91800
C2034       C  0.74387071  0.58214129  0.41721527     0.91600
Mg2035     Mg  0.79591328  0.96152784  0.03992821     1.58000
O2036       O  0.77889402  0.93496275  0.07781500    -0.82000
O2037       O  0.81807998  0.98260906  0.00172583    -0.76200
O2038       O  0.79821228  0.59137351  0.48840632    -0.82100
O2039       O  0.66749525  0.52376631  0.43156734    -0.83800
O2040       O  0.70034765  0.90877758  0.01226629    -0.82100
C2041       C  0.81670875  0.00675413  0.49012022     0.86100
O2042       O  0.75985749  0.94843697  0.01447437    -0.89200
O2043       O  0.77231569  0.49959147  0.05030832    -0.89400
O2044       O  0.72898680  0.98591205  0.06276068    -0.76400
Mg2045     Mg  0.78288933  0.55183722  0.46540867     1.58000
O2046       O  0.81567655  0.58036253  0.03074696    -0.83800
H2047       H  0.75076696  0.98341594  0.41639584    -0.07500
O2048       O  0.70202170  0.97537487  0.00154770    -0.89100
H2049       H  0.66896945  0.48774571  0.02582386    -0.07300
H2050       H  0.78531114  0.92359007  0.49119676    -0.07500
C2051       C  0.68362345  0.49277384  0.00861174     0.86000
C2052       C  0.75045038  0.99895520  0.43305257     0.86600
C2053       C  0.76602813  0.93635601  0.49214256     0.86700
H2054       H  0.75097964  0.51696558  0.08265561    -0.07500
O2055       O  0.74987075  0.55990637  0.02996789    -0.76500
Mg2056     Mg  0.71764597  0.94835343  0.03468978     1.58000
H2057       H  0.71495041  0.57513402  0.00921077    -0.07500
C2058       C  0.65511396  0.49976406  0.42967333     0.91700
O2059       O  0.68491075  0.91951657  0.46899892    -0.83700
C2060       C  0.68577704  0.90287546  0.49024616     0.91700
O2061       O  0.76696271  0.58067716  0.43142436    -0.83700
Mg2062     Mg  0.79316043  0.53884787  0.04065144     1.58200
O2063       O  0.66523616  0.97778284  0.44166384    -0.82100
O2064       O  0.83451275  0.97599413  0.06637131    -0.83800
C2065       C  0.78771134  0.86276133  0.13196706    -0.14300
C2066       C  0.76298954  0.85389342  0.14689663     0.07800
C2067       C  0.73668364  0.86778932  0.14208429    -0.14300
C2068       C  0.73490362  0.88950004  0.12204463    -0.14300
C2069       C  0.75958448  0.89835726  0.10703973     0.07800
C2070       C  0.78609334  0.88505502  0.11245834    -0.14300
H2071       H  0.80832064  0.85269901  0.13565024     0.11800
H2072       H  0.71733977  0.86151639  0.15351087     0.11800
H2073       H  0.71420273  0.89932661  0.11819930     0.11800
H2074       H  0.80538122  0.89128762  0.10093094     0.11800
C2075       C  0.71505448  0.64271388  0.37344831    -0.14300
C2076       C  0.73959905  0.65058027  0.35767990     0.07800
C2077       C  0.76532997  0.63535670  0.36121375    -0.14300
C2078       C  0.76654700  0.61275511  0.38021024    -0.14300
C2079       C  0.74185119  0.60441922  0.39545396     0.07800
C2080       C  0.71608603  0.61957684  0.39195809    -0.14300
H2081       H  0.69491459  0.65397291  0.37091148     0.11800
H2082       H  0.78456291  0.64097636  0.34927704     0.11800
H2083       H  0.78676683  0.60165672  0.38289272     0.11800
H2084       H  0.69696093  0.61392803  0.40403703     0.11800
C2085       C  0.85966555  0.65615288  0.48060708    -0.14300
C2086       C  0.87544704  0.66402403  0.50454838     0.07800
C2087       C  0.86707994  0.65325802  0.03121040    -0.14300
C2088       C  0.84521134  0.63295522  0.03347461    -0.14300
C2089       C  0.83089998  0.62348760  0.00919079     0.07800
C2090       C  0.83738967  0.63633779  0.48295225    -0.14300
H2091       H  0.86540111  0.66433989  0.45986452     0.11800
H2092       H  0.87876370  0.65903362  0.05010550     0.11800
H2093       H  0.84061783  0.62356809  0.05397577     0.11800
H2094       H  0.82675147  0.62956511  0.46379863     0.11800
C2095       C  0.63714627  0.84490747  0.01873067    -0.14300
C2096       C  0.62192092  0.83686269  0.99445357     0.07800
C2097       C  0.63075218  0.84791659  0.46803964    -0.14300
C2098       C  0.65284003  0.86815129  0.46626595    -0.14300
C2099       C  0.66697945  0.87737032  0.49080462     0.07800
C2100       C  0.65957386  0.86468371  0.01689424    -0.14300
H2101       H  0.63102306  0.83667651  0.03934829     0.11800
H2102       H  0.61946058  0.84218421  0.44890289     0.11800
H2103       H  0.65795206  0.87748530  0.44585838     0.11800
H2104       H  0.66987110  0.87132618  0.03627163     0.11800
C2105       C  0.59206151  0.72769737  0.36603680    -0.14300
C2106       C  0.58086619  0.75377540  0.37500682     0.07800
C2107       C  0.58921481  0.77839895  0.36047632    -0.14300
C2108       C  0.60944804  0.77712875  0.33837799    -0.14300
C2109       C  0.62237441  0.75133187  0.33099698     0.07800
C2110       C  0.61295882  0.72654197  0.34455644    -0.14300
H2111       H  0.58614879  0.70835128  0.37693452     0.11800
H2112       H  0.58094037  0.79874291  0.36691645     0.11800
H2113       H  0.61647591  0.79662087  0.32841864     0.11800
H2114       H  0.62257620  0.70641816  0.33930661     0.11800
C2115       C  0.90636718  0.77158554  0.13265493    -0.14300
C2116       C  0.91671364  0.74521615  0.12354532     0.07800
C2117       C  0.90808450  0.72086658  0.13840110    -0.14300
C2118       C  0.88873048  0.72277804  0.16123717    -0.14300
C2119       C  0.87695684  0.74897911  0.16911550     0.07800
C2120       C  0.88639098  0.77340365  0.15490916    -0.14300
H2121       H  0.91242231  0.79074081  0.12149126     0.11800
H2122       H  0.91564136  0.70029581  0.13184653     0.11800
H2123       H  0.88161063  0.70352446  0.17159734     0.11800
H2124       H  0.87760518  0.79382190  0.16040197     0.11800
C2125       C  0.85917945  0.59129986  0.27243213    -0.14300
C2126       C  0.87857401  0.58792298  0.24976508     0.07800
C2127       C  0.87505399  0.60462452  0.22530709    -0.17900
C2128       C  0.85363038  0.62534127  0.22413076    -0.14300
C2129       C  0.83465788  0.62925029  0.24704939     0.07800
C2130       C  0.83712546  0.61146563  0.27089886    -0.14300
H2131       H  0.86145357  0.57876588  0.29152625     0.11800
H2132       H  0.88988654  0.60269503  0.20760938     0.11800
H2133       H  0.85238564  0.63882081  0.20558477     0.11800
H2134       H  0.82302056  0.61422240  0.28903970     0.11800
C2135       C  0.62566338  0.89711367  0.27477676    -0.14300
C2136       C  0.62150633  0.91210669  0.24933014     0.07800
C2137       C  0.64057107  0.90772650  0.22662058    -0.14300
C2138       C  0.66301605  0.88816859  0.22914882    -0.14300
C2139       C  0.66609780  0.87207053  0.25407615     0.07800
C2140       C  0.64744512  0.87695683  0.27696686    -0.14300
H2141       H  0.61106106  0.89988213  0.29253919     0.11800
H2142       H  0.63774403  0.91896364  0.20680539     0.11800
H2143       H  0.67690391  0.88442773  0.21102868     0.11800
H2144       H  0.64922891  0.86463861  0.29626541     0.11800
C2145       C  0.60122774  0.96703933  0.37935206    -0.14300
C2146       C  0.58586443  0.99072431  0.36985691     0.07800
C2147       C  0.59159388  0.01706104  0.38238393    -0.14300
C2148       C  0.61332306  0.51994709  0.40263178    -0.14300
C2149       C  0.62942882  0.49646089  0.41131848     0.07800
C2150       C  0.62254070  0.46982800  0.40006017    -0.14300
H2151       H  0.59748213  0.94652608  0.37008286     0.11800
H2152       H  0.58035278  0.03584071  0.37542818     0.11800
H2153       H  0.61808141  0.54070248  0.41087045     0.11800
H2154       H  0.63467343  0.45129026  0.40616192     0.11800
C2155       C  0.91133204  0.98225849  0.11391292    -0.14300
C2156       C  0.91657278  0.50832697  0.12720133     0.07800
C2157       C  0.90142757  0.53216872  0.11778832    -0.14300
C2158       C  0.88026500  0.52966017  0.09692471    -0.14300
C2159       C  0.87333910  0.00315511  0.08541600     0.07800
C2160       C  0.88973562  0.97964340  0.09348509    -0.14300
H2161       H  0.92261536  0.96340388  0.12058954     0.11800
H2162       H  0.90495892  0.55252234  0.12747600     0.11800
H2163       H  0.86804470  0.54824590  0.09115149     0.11800
H2164       H  0.88508281  0.95902016  0.08486771     0.11800
C2165       C  0.97875851  0.88512164  0.13408078    -0.14300
C2166       C  0.00493028  0.89510880  0.14508475     0.07800
C2167       C  0.53095307  0.88644713  0.13236230    -0.14300
C2168       C  0.53069003  0.86812716  0.10910120    -0.14300
C2169       C  0.00440687  0.85794362  0.09839227     0.07800
C2170       C  0.97850204  0.86674549  0.11117414    -0.14300
H2171       H  0.95831925  0.89155570  0.14320254     0.11800
H2172       H  0.55143547  0.89421538  0.14005899     0.11800
H2173       H  0.55101584  0.86140983  0.09996282     0.11800
H2174       H  0.95786917  0.85918619  0.10363108     0.11800
C2175       C  0.96787570  0.61257602  0.36566630    -0.14300
C2176       C  0.49403089  0.60115818  0.35574876     0.07800
C2177       C  0.51969668  0.60815721  0.36987204    -0.14300
C2178       C  0.51943792  0.62681067  0.39258386    -0.14300
C2179       C  0.49348683  0.63879594  0.40209638     0.07800
C2180       C  0.96759069  0.63111940  0.38875334    -0.14300
H2181       H  0.94767279  0.60714555  0.35564421     0.11800
H2182       H  0.54020244  0.59943513  0.36318664     0.11800
H2183       H  0.53973851  0.63229963  0.40241030     0.11800
H2184       H  0.94729564  0.64027858  0.39545218     0.11800
O2185       O  0.54894266  0.50065802  0.77207611    -0.89300
C2186       C  0.00010615  0.93309422  0.75141456     0.86700
Mg2187     Mg  0.53352541  0.53282270  0.79988944     1.58100
O2188       O  0.50823577  0.98497232  0.69798003    -0.89100
O2189       O  0.56755800  0.99633725  0.72979493    -0.76400
C2190       C  0.90407377  0.56924253  0.75206947     0.91700
O2191       O  0.50153492  0.96883661  0.81063445    -0.76200
O2192       O  0.91677805  0.56652499  0.77585477    -0.83700
Mg2193     Mg  0.54391181  0.95805757  0.78745408     1.58000
C2194       C  0.93440926  0.50937268  0.65323476     0.91700
O2195       O  0.58609013  0.94187742  0.76869091    -0.82000
H2196       H  0.53313053  0.50826033  0.67219551    -0.07300
C2197       C  0.93274174  0.99062034  0.74427117     0.86600
O2198       O  0.52168138  0.56171534  0.76276491    -0.76500
O2199       O  0.52160459  0.94835738  0.74886577    -0.89300
O2200       O  0.94947943  0.98783488  0.65944292    -0.82100
C2201       C  0.00441056  0.91681602  0.66753473     0.91800
C2202       C  0.59577081  0.93013645  0.74640619     0.91600
Mg2203     Mg  0.95624065  0.54061611  0.71104259     1.58000
O2204       O  0.91382032  0.55804121  0.72944353    -0.82000
O2205       O  0.99878601  0.52924245  0.68852108    -0.76200
O2206       O  0.52673436  0.92145406  0.68259311    -0.82100
O2207       O  0.56877027  0.96831924  0.82784424    -0.83800
O2208       O  0.97269003  0.57605555  0.81700264    -0.82100
C2209       C  0.51406113  0.50724664  0.68547131     0.86100
O2210       O  0.97804467  0.55000948  0.75004490    -0.89200
O2211       O  0.95062959  0.99796597  0.72622645    -0.89400
O2212       O  0.93191205  0.50198668  0.76847613    -0.76400
Mg2213     Mg  0.54432669  0.95877270  0.70953400     1.58000
O2214       O  0.98156807  0.93131014  0.67018373    -0.83800
H2215       H  0.58120691  0.52528968  0.75824428    -0.07500
O2216       O  0.99144756  0.51283694  0.80067659    -0.89100
H2217       H  0.96703484  0.98959950  0.82697015    -0.07300
H2218       H  0.49936427  0.58224483  0.73217625    -0.07500
C2219       C  0.98595802  0.99065828  0.81349610     0.86000
C2220       C  0.56666177  0.50801315  0.75386252     0.86600
C2221       C  0.49934370  0.56557212  0.74788881     0.86700
H2222       H  0.91805189  0.97353170  0.73964530    -0.07500
O2223       O  0.97769310  0.93697311  0.73663670    -0.76500
Mg2224     Mg  0.95520869  0.53918335  0.78919562     1.58000
H2225       H  0.99997261  0.91670448  0.76742711    -0.07500
C2226       C  0.56692342  0.98918589  0.84461123     0.91700
O2227       O  0.51773655  0.56588415  0.82951108    -0.83700
C2228       C  0.49482891  0.58020175  0.83249955     0.91700
O2229       O  0.58279226  0.93174782  0.72270787    -0.83700
Mg2230     Mg  0.96607742  0.96530904  0.69899737     1.58200
O2231       O  0.55083185  0.51019546  0.83913952    -0.82100
O2232       O  0.93246750  0.53037581  0.66988724    -0.83800
O2233       O  0.50733625  0.76610309  0.54949119    -0.89300
C2234       C  0.93218699  0.75798000  0.00445917     0.86700
Mg2235     Mg  0.54340249  0.79199736  0.53593795     1.58100
O2236       O  0.97715765  0.69840941  0.50189083    -0.89100
O2237       O  0.99806134  0.72228898  0.56149492    -0.76400
C2238       C  0.56379712  0.75519534  0.90158731     0.91700
O2239       O  0.97678139  0.81209047  0.50906015    -0.76200
O2240       O  0.56535228  0.77715526  0.91694938    -0.83700
Mg2241     Mg  0.96511353  0.78558725  0.54816322     1.58000
C2242       C  0.49432807  0.66200448  0.92294552     0.91700
O2243       O  0.94793518  0.76509598  0.58891275    -0.82000
H2244       H  0.49893407  0.66796463  0.52182218    -0.07300
C2245       C  0.98464578  0.75388709  0.93539596     0.86600
O2246       O  0.56672435  0.75376390  0.51717244    -0.76500
O2247       O  0.94975561  0.75159204  0.52292840    -0.89300
O2248       O  0.97204842  0.66774488  0.93792480    -0.82100
C2249       C  0.90239732  0.68064728  0.00156189     0.91800
C2250       C  0.93371306  0.74344321  0.59688579     0.91600
Mg2251     Mg  0.53285935  0.71283906  0.95037288     1.58000
O2252       O  0.54980714  0.73334268  0.90947376    -0.82000
O2253       O  0.52114058  0.68673153  0.98972025    -0.76200
O2254       O  0.91241702  0.69276834  0.52344791    -0.82100
O2255       O  0.98078743  0.82084892  0.57502692    -0.83800
O2256       O  0.58552656  0.80730360  0.97488217    -0.82100
C2257       C  0.49872391  0.68346466  0.50494677     0.86100
O2258       O  0.54822301  0.74725599  0.97536178    -0.89200
O2259       O  0.99067245  0.73223174  0.94878745    -0.89400
O2260       O  0.49974844  0.77620407  0.93715712    -0.76400
Mg2261     Mg  0.95532297  0.70981692  0.54040487     1.58000
O2262       O  0.91576157  0.68098043  0.97783711    -0.83800
H2263       H  0.53251482  0.74431965  0.57591462    -0.07500
O2264       O  0.52069890  0.80048409  0.99667388    -0.89100
H2265       H  0.99888991  0.83109154  0.97702856    -0.07300
H2266       H  0.58074804  0.72379221  0.48990644    -0.07500
C2267       C  0.99913801  0.81545664  0.99377813     0.86000
C2268       C  0.51331085  0.74452642  0.56303025     0.86600
C2269       C  0.56602312  0.74104681  0.49366044     0.86700
H2270       H  0.96545638  0.75410981  0.92248992    -0.07500
O2271       O  0.93154889  0.74528050  0.98093000    -0.76500
Mg2272     Mg  0.54244797  0.78912354  0.95808684     1.58000
H2273       H  0.91764013  0.77541052  0.00806963    -0.07500
C2274       C  0.00360957  0.83559868  0.57657923     0.91700
O2275       O  0.58187244  0.81839243  0.52066659    -0.83700
C2276       C  0.59523960  0.81948245  0.49694718     0.91700
O2277       O  0.93204550  0.72147118  0.58157953    -0.83700
Mg2278     Mg  0.95454339  0.70671619  0.96252079     1.58200
O2279       O  0.52579795  0.83052873  0.56121605    -0.82100
O2280       O  0.51724497  0.67672893  0.92405323    -0.83800
O2281       O  0.71703991  0.78494465  0.72766507    -0.89300
C2282       C  0.80337227  0.79281089  0.74562783     0.86700
Mg2283     Mg  0.68435710  0.77772292  0.75943438     1.58100
O2284       O  0.78255715  0.72956000  0.71279693    -0.89100
O2285       O  0.73330647  0.76843919  0.68751093    -0.76400
C2286       C  0.73794749  0.67274429  0.83571850     0.91700
O2287       O  0.74507805  0.81070541  0.78410682    -0.76200
O2288       O  0.71990298  0.69281608  0.83808345    -0.83700
Mg2289     Mg  0.74643553  0.81898067  0.73606375     1.58000
C2290       C  0.81499107  0.65388502  0.74777561     0.91700
O2291       O  0.74801981  0.83335700  0.69003733    -0.82000
H2292       H  0.76473119  0.70848255  0.68076420    -0.07300
C2293       C  0.78911730  0.72809035  0.79896454     0.86600
O2294       O  0.68388424  0.73021633  0.74974542    -0.76500
O2295       O  0.78193249  0.79025408  0.73044608    -0.89300
O2296       O  0.82216595  0.67624831  0.73435435    -0.82100
C2297       C  0.85219560  0.74997611  0.68911610     0.91800
C2298       C  0.76467667  0.83147065  0.66867196     0.91600
Mg2299     Mg  0.75533080  0.68367134  0.76784063     1.58000
O2300       O  0.75427859  0.67031970  0.81415366    -0.82000
O2301       O  0.75574964  0.69200057  0.71963721    -0.76200
O2302       O  0.83312076  0.76916249  0.68604164    -0.82100
O2303       O  0.70933993  0.84925402  0.74051688    -0.83800
O2304       O  0.66844933  0.73368121  0.81751086    -0.82100
C2305       C  0.76784040  0.71000330  0.70336484     0.86100
O2306       O  0.71984583  0.71228403  0.77340800    -0.89200
O2307       O  0.78485942  0.71765585  0.77542174    -0.89400
O2308       O  0.76838075  0.73581807  0.81488291    -0.76400
Mg2309     Mg  0.78301142  0.76923901  0.69015175     1.58000
O2310       O  0.84944579  0.73049233  0.70752779    -0.83800
H2311       H  0.69067972  0.77351996  0.69637303    -0.07500
O2312       O  0.71797373  0.77328546  0.79020564    -0.89100
H2313       H  0.73443881  0.79463979  0.82272876    -0.07300
H2314       H  0.69321438  0.68839597  0.75052699    -0.07500
C2315       C  0.73219887  0.79297040  0.80003268     0.86000
C2316       C  0.71264166  0.77578365  0.70364896     0.86600
C2317       C  0.69874385  0.70926016  0.75788079     0.86700
H2318       H  0.81105854  0.73118672  0.80599516    -0.07500
O2319       O  0.81836985  0.77157820  0.75282379    -0.76500
Mg2320     Mg  0.71857165  0.73417184  0.81317903     1.58000
H2321       H  0.80925642  0.81347437  0.75327119    -0.07500
C2322       C  0.68588861  0.84778308  0.75444372     0.91700
O2323       O  0.65065049  0.77024043  0.79341097    -0.83700
C2324       C  0.64824125  0.75129118  0.81244297     0.91700
O2325       O  0.78273656  0.81141032  0.66613725    -0.83700
Mg2326     Mg  0.81681364  0.72403865  0.74268510     1.58200
O2327       O  0.67787030  0.82523597  0.76704367    -0.82100
O2328       O  0.79240734  0.65286835  0.76310963    -0.83800
O2329       O  0.72925227  0.00023821  0.94895516    -0.89300
C2330       C  0.73445815  0.56272051  0.50799029     0.86700
Mg2331     Mg  0.70813090  0.96082426  0.95869703     1.58100
O2332       O  0.79883495  0.52444838  0.99779572    -0.89100
O2333       O  0.77236404  0.51459563  0.93654230    -0.76400
C2334       C  0.75719107  0.91935469  0.58393071     0.91700
O2335       O  0.68212173  0.51675863  0.99672394    -0.76200
O2336       O  0.73389326  0.92017748  0.56982178    -0.83700
Mg2337     Mg  0.70511791  0.53821406  0.95921147     1.58000
C2338       C  0.84706405  0.99994648  0.56788329     0.91700
O2339       O  0.72222021  0.56610781  0.92222178    -0.82000
H2340       H  0.83091902  0.01163959  0.97251631    -0.07300
C2341       C  0.75112617  0.50124577  0.56616863     0.86600
O2342       O  0.75096711  0.93938190  0.96997765    -0.76500
O2343       O  0.74066548  0.55093119  0.98549880    -0.89300
O2344       O  0.83653406  0.52200445  0.55642093    -0.82100
C2345       C  0.81327290  0.59737911  0.50997952     0.91800
C2346       C  0.74387081  0.58214133  0.91721530     0.91600
Mg2347     Mg  0.79591332  0.96152782  0.53992819     1.58000
O2348       O  0.77889407  0.93496272  0.57781503    -0.82000
O2349       O  0.81808000  0.98260905  0.50172575    -0.76200
O2350       O  0.79821231  0.59137350  0.98840630    -0.82100
O2351       O  0.66749524  0.52376628  0.93156744    -0.83800
O2352       O  0.70034777  0.90877754  0.51226622    -0.82100
C2353       C  0.81670874  0.00675415  0.99012031     0.86100
O2354       O  0.75985749  0.94843699  0.51447437    -0.89200
O2355       O  0.77231568  0.49959146  0.55030832    -0.89400
O2356       O  0.72898682  0.98591211  0.56276065    -0.76400
Mg2357     Mg  0.78288942  0.55183723  0.96540864     1.58000
O2358       O  0.81567649  0.58036250  0.53074700    -0.83800
H2359       H  0.75076697  0.98341594  0.91639582    -0.07500
O2360       O  0.70202179  0.97537486  0.50154763    -0.89100
H2361       H  0.66896943  0.48774576  0.52582377    -0.07300
H2362       H  0.78531116  0.92359009  0.99119671    -0.07500
C2363       C  0.68362341  0.49277388  0.50861167     0.86000
C2364       C  0.75045041  0.99895520  0.93305259     0.86600
C2365       C  0.76602811  0.93635603  0.99214255     0.86700
H2366       H  0.75097963  0.51696555  0.58265560    -0.07500
O2367       O  0.74987079  0.55990632  0.52996790    -0.76500
Mg2368     Mg  0.71764600  0.94835344  0.53468974     1.58000
H2369       H  0.71495046  0.57513400  0.50921081    -0.07500
C2370       C  0.65511393  0.49976405  0.92967340     0.91700
O2371       O  0.68491078  0.91951656  0.96899892    -0.83700
C2372       C  0.68577704  0.90287545  0.99024617     0.91700
O2373       O  0.76696284  0.58067721  0.93142433    -0.83700
Mg2374     Mg  0.79316042  0.53884783  0.54065146     1.58200
O2375       O  0.66523607  0.97778283  0.94166393    -0.82100
O2376       O  0.83451284  0.97599407  0.56637123    -0.83800
C2377       C  0.78771124  0.86276133  0.63196711    -0.14300
C2378       C  0.76298943  0.85389342  0.64689665     0.07800
C2379       C  0.73668354  0.86778933  0.64208430    -0.14300
C2380       C  0.73490356  0.88950005  0.62204463    -0.14300
C2381       C  0.75958444  0.89835726  0.60703978     0.07800
C2382       C  0.78609330  0.88505503  0.61245841    -0.14300
H2383       H  0.80832054  0.85269899  0.63565032     0.11800
H2384       H  0.71733965  0.86151637  0.65351085     0.11800
H2385       H  0.71420268  0.89932661  0.61819924     0.11800
H2386       H  0.80538117  0.89128761  0.60093106     0.11800
C2387       C  0.71505455  0.64271388  0.87344837    -0.14300
C2388       C  0.73959913  0.65058026  0.85767994     0.07800
C2389       C  0.76533001  0.63535665  0.86121370    -0.14300
C2390       C  0.76654705  0.61275509  0.88021021    -0.14300
C2391       C  0.74185125  0.60441924  0.89545400     0.07800
C2392       C  0.71608610  0.61957684  0.89195812    -0.14300
H2393       H  0.69491467  0.65397292  0.87091154     0.11800
H2394       H  0.78456294  0.64097627  0.84927694     0.11800
H2395       H  0.78676687  0.60165667  0.88289264     0.11800
H2396       H  0.69696096  0.61392799  0.90403705     0.11800
C2397       C  0.85966563  0.65615286  0.98060706    -0.14300
C2398       C  0.87544704  0.66402404  0.00454842     0.07800
C2399       C  0.86707999  0.65325799  0.53121039    -0.14300
C2400       C  0.84521139  0.63295520  0.53347464    -0.14300
C2401       C  0.83089994  0.62348760  0.50919088     0.07800
C2402       C  0.83738975  0.63633778  0.98295219    -0.14300
H2403       H  0.86540123  0.66433990  0.95986455     0.11800
H2404       H  0.87876378  0.65903357  0.55010544     0.11800
H2405       H  0.84061791  0.62356804  0.55397584     0.11800
H2406       H  0.82675156  0.62956513  0.96379853     0.11800
C2407       C  0.63714635  0.84490745  0.51873070    -0.14300
C2408       C  0.62192101  0.83686268  0.49445356     0.07800
C2409       C  0.63075212  0.84791657  0.96803962    -0.14300
C2410       C  0.65284003  0.86815124  0.96626591    -0.14300
C2411       C  0.66697946  0.87737027  0.99080458     0.07800
C2412       C  0.65957392  0.86468370  0.51689427    -0.14300
H2413       H  0.63102315  0.83667648  0.53934830     0.11800
H2414       H  0.61946051  0.84218419  0.94890289     0.11800
H2415       H  0.65795209  0.87748523  0.94585834     0.11800
H2416       H  0.66987121  0.87132614  0.53627167     0.11800
C2417       C  0.59206144  0.72769741  0.86603684    -0.14300
C2418       C  0.58086619  0.75377545  0.87500687     0.07800
C2419       C  0.58921491  0.77839900  0.86047642    -0.14300
C2420       C  0.60944811  0.77712875  0.83837808    -0.14300
C2421       C  0.62237438  0.75133184  0.83099705     0.07800
C2422       C  0.61295873  0.72654194  0.84455648    -0.14300
H2423       H  0.58614862  0.70835131  0.87693453     0.11800
H2424       H  0.58094052  0.79874299  0.86691657     0.11800
H2425       H  0.61647603  0.79662085  0.82841875     0.11800
H2426       H  0.62257602  0.70641810  0.83930663     0.11800
C2427       C  0.90636721  0.77158557  0.63265497    -0.14300
C2428       C  0.91671355  0.74521615  0.62354528     0.07800
C2429       C  0.90808436  0.72086659  0.63840104    -0.14300
C2430       C  0.88873040  0.72277808  0.66123714    -0.14300
C2431       C  0.87695682  0.74897916  0.66911547     0.07800
C2432       C  0.88639100  0.77340369  0.65490918    -0.14300
H2433       H  0.91242244  0.79074086  0.62149139     0.11800
H2434       H  0.91564117  0.70029578  0.63184648     0.11800
H2435       H  0.88161053  0.70352451  0.67159733     0.11800
H2436       H  0.87760523  0.79382196  0.66040202     0.11800
C2437       C  0.85917953  0.59129991  0.77243216    -0.14300
C2438       C  0.87857409  0.58792303  0.74976511     0.07800
C2439       C  0.87505406  0.60462456  0.72530713    -0.17900
C2440       C  0.85363040  0.62534125  0.72413072    -0.14300
C2441       C  0.83465793  0.62925028  0.74704938     0.07800
C2442       C  0.83712558  0.61146571  0.77089890    -0.14300
H2443       H  0.86145364  0.57876594  0.79152628     0.11800
H2444       H  0.88988665  0.60269508  0.70760942     0.11800
H2445       H  0.85238561  0.63882072  0.70558472     0.11800
H2446       H  0.82302075  0.61422255  0.78903979     0.11800
C2447       C  0.62566341  0.89711363  0.77477673    -0.14300
C2448       C  0.62150631  0.91210661  0.74933009     0.07800
C2449       C  0.64057106  0.90772642  0.72662054    -0.14300
C2450       C  0.66301609  0.88816859  0.72914879    -0.14300
C2451       C  0.66609786  0.87207054  0.75407613     0.07800
C2452       C  0.64744518  0.87695683  0.77696684    -0.14300
H2453       H  0.61106108  0.89988208  0.79253916     0.11800
H2454       H  0.63774400  0.91896353  0.70680529     0.11800
H2455       H  0.67690395  0.88442776  0.71102867     0.11800
H2456       H  0.64922900  0.86463863  0.79626541     0.11800
C2457       C  0.60122779  0.96703931  0.87935205    -0.14300
C2458       C  0.58586451  0.99072428  0.86985684     0.07800
C2459       C  0.59159393  0.01706102  0.88238387    -0.14300
C2460       C  0.61332299  0.51994709  0.90263183    -0.14300
C2461       C  0.62942877  0.49646089  0.91131853     0.07800
C2462       C  0.62254066  0.46982801  0.90006022    -0.14300
H2463       H  0.59748221  0.94652605  0.87008284     0.11800
H2464       H  0.58035285  0.03584069  0.87542811     0.11800
H2465       H  0.61808128  0.54070245  0.91087057     0.11800
H2466       H  0.63467339  0.45129026  0.90616202     0.11800
C2467       C  0.91133195  0.98225844  0.61391297    -0.14300
C2468       C  0.91657277  0.50832696  0.62720135     0.07800
C2469       C  0.90142756  0.53216872  0.61778837    -0.14300
C2470       C  0.88026501  0.52966016  0.59692475    -0.14300
C2471       C  0.87333907  0.00315510  0.58541605     0.07800
C2472       C  0.88973557  0.97964339  0.59348511    -0.14300
H2473       H  0.92261525  0.96340382  0.62058959     0.11800
H2474       H  0.90495894  0.55252233  0.62747607     0.11800
H2475       H  0.86804473  0.54824591  0.59115150     0.11800
H2476       H  0.88508277  0.95902016  0.58486767     0.11800
C2477       C  0.97875847  0.88512168  0.63408070    -0.14300
C2478       C  0.00493021  0.89510880  0.64508472     0.07800
C2479       C  0.53095313  0.88644706  0.63236232    -0.14300
C2480       C  0.53069008  0.86812710  0.60910122    -0.14300
C2481       C  0.00440691  0.85794365  0.59839225     0.07800
C2482       C  0.97850205  0.86674552  0.61117407    -0.14300
H2483       H  0.95831918  0.89155574  0.64320242     0.11800
H2484       H  0.55143555  0.89421526  0.64005905     0.11800
H2485       H  0.55101587  0.86140970  0.59996287     0.11800
H2486       H  0.95786920  0.85918620  0.60363096     0.11800
C2487       C  0.96787569  0.61257596  0.86566629    -0.14300
C2488       C  0.49403086  0.60115812  0.85574877     0.07800
C2489       C  0.51969667  0.60815722  0.86987200    -0.14300
C2490       C  0.51943792  0.62681070  0.89258380    -0.14300
C2491       C  0.49348683  0.63879595  0.90209635     0.07800
C2492       C  0.96759068  0.63111938  0.88875330    -0.14300
H2493       H  0.94767280  0.60714547  0.85564421     0.11800
H2494       H  0.54020243  0.59943517  0.86318660     0.11800
H2495       H  0.53973853  0.63229967  0.90241022     0.11800
H2496       H  0.94729561  0.64027856  0.89545213     0.11800
loop_ 
_geom_bond_atom_site_label_1 
_geom_bond_atom_site_label_2 
_geom_bond_distance 
_geom_bond_site_symmetry_2 
_ccdc_geom_bond_type 
O1           Mg3   2.140       .  S
O1         Mg633   2.154   1_545  S
O1           C36   1.234       .  S
C2         O1263   1.235       .  S
C2           O39   1.268       .  A
C2           H41   1.081       .  S
Mg3        O1280   2.166   1_455  S
Mg3          O47   2.287       .  S
Mg3          O43   2.229       .  S
Mg3          O14   2.289       .  S
O4          Mg29   2.157       .  S
O4        Mg1294   2.163   1_455  S
O4          C649   1.236       .  S
O5          C660   1.268       .  A
O5          Mg29   2.296       .  S
C6            O8   1.278       .  A
C6           O20   1.277       .  A
C6          C254   1.482       .  S
O7         C1283   1.270   1_455  A
O7           Mg9   2.302       .  S
O8          Mg40   2.294       .  S
Mg9          O15   2.153       .  S
Mg9         O625   2.154       .  S
Mg9          O23   2.289       .  S
Mg9          O11   2.277       .  S
C10          O48   1.276       .  A
C10         O640   1.272   1_545  A
C10         C284   1.487       .  S
O11          C18   1.273       .  A
H12          C25   1.081       .  S
C13          O27   1.233       .  S
C13         O652   1.267       .  A
C13          H38   1.081       .  S
O14          C37   1.268   1_455  A
O15         Mg29   2.183       .  S
O15        C1250   1.235       .  S
O16         C634   1.272       .  A
O16         Mg46   2.285       .  S
C17          O30   1.269       .  A
C17        O1270   1.278       .  A
C17         C294   1.482       .  S
C18          O45   1.276       .  A
C18         C264   1.476       .  S
Mg19         O26   2.155       .  S
Mg19        O651   2.156   1_545  S
Mg19         O20   2.301       .  S
Mg19         O21   2.301       .  S
Mg19         O48   2.294       .  S
O21        C1273   1.270       .  A
O22        C1265   1.278       .  A
O22         Mg29   2.334       .  S
O23          C42   1.274       .  A
O24        C1292   1.279       .  A
O24         Mg40   2.339       .  S
C25         O628   1.236   1_545  S
C25        O1269   1.270   1_455  A
O26         Mg40   2.183       .  S
O26        C1285   1.234       .  S
O27         Mg46   2.140       .  S
O27        Mg643   2.156       .  S
O28         C637   1.267   1_545  A
O28         Mg40   2.293       .  S
Mg29         O45   2.285       .  S
O30         Mg46   2.233       .  S
H31          C36   1.081       .  S
O32         Mg40   2.165       .  S
O32       Mg1251   2.166       .  S
O32         C659   1.236   1_545  S
H33          C35   1.081       .  S
H34          C37   1.081       .  S
C35         O656   1.236       .  S
C35        O1255   1.270       .  A
C36         O629   1.268   1_545  A
C37        O1274   1.234       .  S
O39         Mg46   2.290       .  S
C42         O671   1.272       .  A
C42         C274   1.487       .  S
O43          C44   1.269   1_455  A
C44        O1272   1.279       .  A
C44         C304   1.486       .  S
Mg46       O1252   2.163       .  S
O47         C666   1.272   1_545  A
O49         Mg51   2.163       .  S
O49       Mg1305   2.167   1_455  S
O49          C84   1.236       .  S
C50         O375   1.234       .  S
C50          O87   1.268       .  A
C50          H89   1.081       .  S
Mg51        O392   2.174   1_554  S
Mg51         O95   2.334       .  S
Mg51         O91   2.286       .  S
Mg51         O62   2.292       .  S
O52         Mg77   2.149       .  S
O52        Mg406   2.175   1_554  S
O52        C1321   1.235       .  S
O53        C1332   1.270       .  A
O53         Mg77   2.300       .  S
C54          O56   1.275       .  A
C54          O68   1.273       .  A
C54         C234   1.482       .  S
O55         C395   1.268   1_554  A
O55         Mg57   2.289       .  S
O56         Mg88   2.283       .  S
Mg57         O63   2.134       .  S
Mg57       O1297   2.167       .  S
Mg57         O71   2.228       .  S
Mg57         O59   2.289       .  S
C58          O96   1.271   1_655  A
C58        O1312   1.279       .  A
C58         C307   1.482       .  S
O59          C66   1.272       .  A
H60          C73   1.081       .  S
C61          O75   1.236       .  S
C61        O1324   1.271       .  A
C61          H86   1.081       .  S
O62          C85   1.267   1_554  A
O63         Mg77   2.158       .  S
O63         C362   1.234       .  S
O64        C1306   1.279       .  A
O64         Mg94   2.333       .  S
C65          O78   1.277       .  A
C65         O382   1.275       .  A
C65         C214   1.481       .  S
C66          O93   1.274       .  A
C66         C244   1.484       .  S
Mg67         O74   2.143       .  S
Mg67       O1323   2.164   1_455  S
Mg67         O68   2.291       .  S
Mg67         O69   2.289       .  S
Mg67         O96   2.243       .  S
O69         C385   1.268   1_455  A
O70         C377   1.275       .  A
O70         Mg77   2.295       .  S
O71          C90   1.269       .  A
O72         C404   1.278       .  A
O72         Mg88   2.319       .  S
C73        O1300   1.235       .  S
C73         O381   1.268   1_654  A
O74         Mg88   2.160       .  S
O74         C397   1.233       .  S
O75         Mg94   2.157       .  S
O75       Mg1315   2.164       .  S
O76        C1309   1.271       .  A
O76         Mg88   2.301   1_655  S
Mg77         O93   2.289       .  S
O78         Mg94   2.281       .  S
H79          C84   1.081       .  S
O80         Mg88   2.149       .  S
O80        Mg363   2.174       .  S
O80        C1331   1.235   1_455  S
H81          C83   1.081       .  S
H82          C85   1.081       .  S
C83        O1328   1.235       .  S
C83         O367   1.268       .  A
C84        O1301   1.270   1_455  A
C85         O386   1.233       .  S
O87         Mg94   2.291       .  S
C90        O1343   1.279       .  A
C90         C297   1.483       .  S
O91          C92   1.277   1_554  A
C92         O384   1.278       .  A
C92         C224   1.488       .  S
Mg94        O364   2.175       .  S
O95        C1338   1.279       .  A
O97         Mg99   2.151       .  S
O97        Mg105   2.150       .  S
O97         C132   1.235       .  S
C98         O111   1.235       .  S
C98         O135   1.271       .  A
C98         H137   1.081       .  S
Mg99        O128   2.147       .  S
Mg99        O143   2.303       .  S
Mg99        O139   2.258       .  S
Mg99        O110   2.301       .  S
O100       Mg142   2.146       .  S
O100       Mg125   2.159       .  S
O100        C121   1.237       .  S
O101        C132   1.271       .  A
O101       Mg125   2.307       .  S
C102        O104   1.273       .  A
C102        O116   1.271       .  A
C102        C204   1.475       .  S
O103        C131   1.270       .  A
O103       Mg105   2.301       .  S
O104       Mg136   2.282       .  S
Mg105       O111   2.154       .  S
Mg105       O119   2.251       .  S
Mg105       O107   2.275       .  S
C106        O144   1.269       .  A
C106        O112   1.275       .  A
C106        C257   1.484       .  S
O107        C114   1.270       .  A
H108        C121   1.081       .  S
C109        O123   1.237       .  S
C109        O124   1.272       .  A
C109        H134   1.081       .  S
O110        C133   1.269       .  A
O111       Mg125   2.154       .  S
O112       Mg142   2.316       .  S
C113        O126   1.271       .  A
C113        O118   1.278       .  A
C113        C247   1.483       .  S
C114        O141   1.274       .  A
C114        C194   1.478       .  S
Mg115       O122   2.150       .  S
Mg115       O123   2.145       .  S
Mg115       O116   2.274       .  S
Mg115       O117   2.309       .  S
Mg115       O144   2.268       .  S
O117        C121   1.272       .  A
O118       Mg125   2.329       .  S
O119        C138   1.268       .  A
O120        C140   1.279       .  A
O120       Mg136   2.330       .  S
O122       Mg136   2.152       .  S
O122        C133   1.235       .  S
O123       Mg142   2.154       .  S
O124       Mg136   2.311       .  S
Mg125       O141   2.293       .  S
O126       Mg142   2.258       .  S
H127        C132   1.081       .  S
O128       Mg136   2.144       .  S
O128        C131   1.236       .  S
H129        C131   1.081       .  S
H130        C133   1.081       .  S
O135       Mg142   2.308       .  S
C138        O143   1.274       .  A
C138        C267   1.474       .  S
O139        C140   1.271       .  A
C140        C237   1.480       .  S
O145       Mg147   2.153       .  S
O145       Mg777   2.177       .  S
O145        C180   1.235       .  S
C146        O471   1.236   1_554  S
C146        O183   1.270       .  A
C146        H185   1.081       .  S
Mg147       O488   2.159       .  S
Mg147       O191   2.294       .  S
Mg147       O187   2.281       .  S
Mg147       O158   2.296       .  S
O148       Mg173   2.137       .  S
O148       Mg502   2.155       .  S
O148        C793   1.235       .  S
O149        C804   1.268   1_545  A
O149       Mg173   2.291       .  S
C150        O152   1.273       .  A
C150        O164   1.278       .  A
C150        C197   1.478       .  S
O151        C491   1.268   1_545  A
O151       Mg153   2.293       .  S
O152       Mg184   2.258       .  S
Mg153       O159   2.156       .  S
Mg153       O769   2.177       .  S
Mg153       O167   2.291       .  S
Mg153       O155   2.320       .  S
C154        O192   1.277       .  A
C154        O784   1.274       .  A
C154        C287   1.485       .  S
O155        C162   1.277       .  A
H156        C169   1.081       .  S
C157        O171   1.234   1_545  S
C157        O796   1.268   1_545  A
C157        H182   1.081       .  S
O158        C181   1.270       .  A
O159       Mg173   2.169       .  S
O159        C458   1.236       .  S
O160        C778   1.274   1_545  A
O160       Mg190   2.292       .  S
C161        O174   1.272       .  A
C161        O478   1.272   1_554  A
C161        C217   1.482       .  S
C162        O189   1.268       .  A
C162        C207   1.473       .  S
Mg163       O170   2.157       .  S
Mg163       O795   2.169       .  S
Mg163       O164   2.316       .  S
Mg163       O165   2.294       .  S
Mg163       O192   2.294       .  S
O165        C481   1.268   1_554  A
O166        C473   1.272       .  A
O166       Mg173   2.286       .  S
O167        C186   1.277   1_545  A
O168        C500   1.276   1_554  A
O168       Mg184   2.305       .  S
C169        O772   1.235       .  S
C169        O477   1.268       .  A
O170       Mg184   2.171       .  S
O170        C493   1.236   1_554  S
O171       Mg190   2.140   1_565  S
O171       Mg787   2.169       .  S
O172        C781   1.268       .  A
O172       Mg184   2.289       .  S
Mg173       O189   2.233       .  S
O174       Mg190   2.270       .  S
H175        C180   1.081       .  S
O176       Mg184   2.148       .  S
O176       Mg459   2.159   1_554  S
O176        C803   1.233       .  S
H177        C179   1.081       .  S
H178        C181   1.081       .  S
C179        O800   1.233       .  S
C179        O463   1.268   1_564  A
C180        O773   1.268       .  A
C181        O482   1.236       .  S
O183       Mg190   2.300       .  S
C186        O815   1.275       .  A
C186        C277   1.485       .  S
O187        C188   1.274       .  A
C188        O480   1.276       .  A
C188        C227   1.489       .  S
Mg190       O460   2.155   1_554  S
O191        C810   1.275       .  A
C193        H199   1.083       .  S
C193        C194   1.404       .  A
C193        C198   1.401       .  A
C194        C195   1.406       .  A
C195        H200   1.083       .  S
C195        C196   1.397       .  A
C196        H201   1.083       .  S
C196        C197   1.404       .  A
C197        C198   1.406       .  A
C198        H202   1.083       .  S
C203        H209   1.083       .  S
C203        C204   1.404       .  A
C203        C208   1.400       .  A
C204        C205   1.405       .  A
C205        H210   1.083       .  S
C205        C206   1.395       .  A
C206        H211   1.083       .  S
C206        C207   1.403       .  A
C207        C208   1.405       .  A
C208        H212   1.083       .  S
C213        H219   1.083       .  S
C213        C214   1.403       .  A
C213        C218   1.397       .  A
C214        C527   1.408       .  A
C215        H220   1.083       .  S
C215        C216   1.399       .  A
C215        C526   1.408       .  A
C216        H221   1.083       .  S
C216        C217   1.404       .  A
C217        C530   1.408   1_554  A
C218        H222   1.083       .  S
C218        C529   1.408       .  A
C223        H229   1.083       .  S
C223        C224   1.404   1_554  A
C223        C228   1.400       .  A
C224        C537   1.408       .  A
C225        H230   1.083       .  S
C225        C226   1.403       .  A
C225        C536   1.408       .  A
C226        H231   1.083       .  S
C226        C227   1.406       .  A
C227        C540   1.408       .  A
C228        H232   1.083       .  S
C228        C539   1.408   1_554  A
C233        H239   1.083       .  S
C233        C234   1.408       .  A
C233        C238   1.399       .  A
C234        C235   1.403       .  A
C235        H240   1.083       .  S
C235        C236   1.400       .  A
C236        H241   1.083       .  S
C236        C237   1.408       .  A
C237        C238   1.403       .  A
C238        H242   1.083       .  S
C243        H249   1.083       .  S
C243        C244   1.409       .  A
C243        C248   1.399       .  A
C244        C245   1.404       .  A
C245        H250   1.083       .  S
C245        C246   1.402       .  A
C246        H251   1.083       .  S
C246        C247   1.409       .  A
C247        C248   1.403       .  A
C248        H252   1.083       .  S
C253        H259   1.083       .  S
C253        C254   1.404       .  A
C253        C258   1.403       .  A
C254        C255   1.407       .  A
C255        H260   1.083       .  S
C255        C256   1.399       .  A
C256        H261   1.083       .  S
C256        C257   1.404       .  A
C257        C258   1.409       .  A
C258        H262   1.083       .  S
C263        H269   1.083       .  S
C263        C264   1.407       .  A
C263        C268   1.395       .  A
C264        C265   1.402       .  A
C265        H270   1.083       .  S
C265        C266   1.400       .  A
C266        H271   1.083       .  S
C266        C267   1.408       .  A
C267        C268   1.401       .  A
C268        H272   1.083       .  S
C273        H279   1.083       .  S
C273        C274   1.404       .  A
C273        C902   1.401       .  A
C274        C275   1.410       .  A
C275        H280   1.083       .  S
C275        C900   1.400       .  A
C276        H281   1.083       .  S
C276        C277   1.403   1_545  A
C276        C899   1.400       .  A
C277        C278   1.410       .  A
C278        H282   1.083       .  S
C278        C897   1.401       .  A
C283        H289   1.083       .  S
C283        C288   1.400       .  A
C283        C908   1.411       .  A
C284        C285   1.403       .  A
C284        C907   1.411   1_545  A
C285        H290   1.083       .  S
C285        C286   1.400       .  A
C286        H291   1.083       .  S
C286        C911   1.409       .  A
C287        C288   1.403       .  A
C287        C910   1.409       .  A
C288        H292   1.083       .  S
C293        H299   1.083       .  S
C293        C294   1.405       .  A
C293        C298   1.393       .  A
C294       C1543   1.407       .  A
C295        H300   1.083       .  S
C295        C296   1.405       .  A
C295       C1542   1.407       .  A
C296        H301   1.083       .  S
C296       C1545   1.407       .  A
C297        C298   1.405       .  A
C297       C1544   1.407       .  A
C298        H302   1.083       .  S
C303        H309   1.083       .  S
C303        C308   1.405       .  A
C303       C1552   1.407       .  A
C304        C305   1.407   1_655  A
C304       C1551   1.407       .  A
C305        H310   1.083       .  S
C305        C306   1.394       .  A
C306        H311   1.083       .  S
C306        C307   1.404   1_455  A
C307       C1556   1.407       .  A
C308        H312   1.083       .  S
C308       C1555   1.407       .  A
O313       Mg315   2.140       .  S
O313       Mg945   2.154   1_545  S
O313        C348   1.234       .  S
C314       O1575   1.235       .  S
C314        O351   1.268       .  A
C314        H353   1.081       .  S
Mg315      O1592   2.166   1_455  S
Mg315       O359   2.287       .  S
Mg315       O355   2.229       .  S
Mg315       O326   2.289       .  S
O316      Mg1606   2.163   1_455  S
O316       Mg341   2.157       .  S
O316        C961   1.236       .  S
O317        C972   1.268       .  A
O317       Mg341   2.296       .  S
C318        O320   1.278       .  A
C318        O332   1.277       .  A
C318        C566   1.482       .  S
O319       C1595   1.270   1_455  A
O319       Mg321   2.302       .  S
O320       Mg352   2.294       .  S
Mg321       O937   2.154       .  S
Mg321       O327   2.153       .  S
Mg321       O335   2.289       .  S
Mg321       O323   2.277       .  S
C322        O360   1.276       .  A
C322        O952   1.272   1_545  A
C322        C596   1.487       .  S
O323        C330   1.273       .  A
H324        C337   1.081       .  S
C325        O339   1.233       .  S
C325        O964   1.267       .  A
C325        H350   1.081       .  S
O326        C349   1.268   1_455  A
O327       Mg341   2.183       .  S
O327       C1562   1.235       .  S
O328        C946   1.272       .  A
O328       Mg358   2.285       .  S
C329        O342   1.269       .  A
C329       O1582   1.278       .  A
C329        C606   1.482       .  S
C330        O357   1.276       .  A
C330        C576   1.476       .  S
Mg331       O338   2.155       .  S
Mg331       O963   2.156   1_545  S
Mg331       O332   2.301       .  S
Mg331       O333   2.301       .  S
Mg331       O360   2.294       .  S
O333       C1585   1.270       .  A
O334       C1577   1.278       .  A
O334       Mg341   2.334       .  S
O335        C354   1.274       .  A
O336       C1604   1.279       .  A
O336       Mg352   2.339       .  S
C337        O940   1.236   1_545  S
C337       O1581   1.270   1_455  A
O338       Mg352   2.183       .  S
O338       C1597   1.234       .  S
O339       Mg955   2.156       .  S
O339       Mg358   2.140       .  S
O340        C949   1.267   1_545  A
O340       Mg352   2.293       .  S
Mg341       O357   2.285       .  S
O342       Mg358   2.233       .  S
H343        C348   1.081       .  S
O344      Mg1563   2.166       .  S
O344       Mg352   2.165       .  S
O344        C971   1.236   1_545  S
H345        C347   1.081       .  S
H346        C349   1.081       .  S
C347        O968   1.236       .  S
C347       O1567   1.270       .  A
C348        O941   1.268   1_545  A
C349       O1586   1.234       .  S
O351       Mg358   2.290       .  S
C354        O983   1.272       .  A
C354        C586   1.487       .  S
O355        C356   1.269   1_455  A
C356       O1584   1.279       .  A
C356        C616   1.486       .  S
Mg358      O1564   2.163       .  S
O359        C978   1.272   1_545  A
O361       Mg363   2.163       .  S
O361      Mg1617   2.167   1_455  S
O361        C396   1.236       .  S
C362        O399   1.268   1_554  A
C362        H401   1.081       .  S
Mg363       O407   2.334       .  S
Mg363       O403   2.286       .  S
Mg363       O374   2.292       .  S
O364       Mg389   2.149       .  S
O364       C1633   1.235       .  S
O365       C1644   1.270       .  A
O365       Mg389   2.300       .  S
C366        O368   1.275       .  A
C366        O380   1.273       .  A
C366        C546   1.482       .  S
O367       Mg369   2.289       .  S
O368       Mg400   2.283       .  S
Mg369      O1609   2.167       .  S
Mg369       O375   2.134       .  S
Mg369       O383   2.228       .  S
Mg369       O371   2.289       .  S
C370        O408   1.271   1_655  A
C370       O1624   1.279       .  A
C370        C619   1.482       .  S
O371        C378   1.272       .  A
H372        C385   1.081       .  S
C373        O387   1.236       .  S
C373       O1636   1.271       .  A
C373        H398   1.081       .  S
O374        C397   1.267       .  A
O375       Mg389   2.158       .  S
O376       C1618   1.279       .  A
O376       Mg406   2.333       .  S
C377        O390   1.277   1_554  A
C377        C526   1.481       .  S
C378        O405   1.274       .  A
C378        C556   1.484       .  S
Mg379       O386   2.143       .  S
Mg379      O1635   2.164   1_455  S
Mg379       O380   2.291       .  S
Mg379       O381   2.289       .  S
Mg379       O408   2.243       .  S
O382       Mg389   2.295       .  S
O383        C402   1.269       .  A
O384       Mg400   2.319       .  S
C385       O1612   1.235       .  S
O386       Mg400   2.160       .  S
O387      Mg1627   2.164       .  S
O387       Mg406   2.157       .  S
O388       C1621   1.271       .  A
O388       Mg400   2.301   1_655  S
Mg389       O405   2.289       .  S
O390       Mg406   2.281       .  S
H391        C396   1.081       .  S
O392       Mg400   2.149       .  S
O392       C1643   1.235   1_455  S
H393        C395   1.081       .  S
H394        C397   1.081       .  S
C395       O1640   1.235       .  S
C396       O1613   1.270   1_455  A
O399       Mg406   2.291       .  S
C402       O1655   1.279       .  A
C402        C609   1.483       .  S
O403        C404   1.277       .  A
C404        C536   1.488       .  S
O407       C1650   1.279       .  A
O409       Mg411   2.151       .  S
O409       Mg417   2.150       .  S
O409        C444   1.235       .  S
C410        O423   1.235       .  S
C410        O447   1.271       .  A
C410        H449   1.081       .  S
Mg411       O440   2.147       .  S
Mg411       O455   2.303       .  S
Mg411       O451   2.258       .  S
Mg411       O422   2.301       .  S
O412       Mg454   2.146       .  S
O412       Mg437   2.159       .  S
O412        C433   1.237       .  S
O413        C444   1.271       .  A
O413       Mg437   2.307       .  S
C414        O416   1.273       .  A
C414        O428   1.271       .  A
C414        C516   1.475       .  S
O415        C443   1.270       .  A
O415       Mg417   2.301       .  S
O416       Mg448   2.282       .  S
Mg417       O423   2.154       .  S
Mg417       O431   2.251       .  S
Mg417       O419   2.275       .  S
C418        O456   1.269       .  A
C418        O424   1.275       .  A
C418        C569   1.484       .  S
O419        C426   1.270       .  A
H420        C433   1.081       .  S
C421        O435   1.237       .  S
C421        O436   1.272       .  A
C421        H446   1.081       .  S
O422        C445   1.269       .  A
O423       Mg437   2.154       .  S
O424       Mg454   2.316       .  S
C425        O438   1.271       .  A
C425        O430   1.278       .  A
C425        C559   1.483       .  S
C426        O453   1.274       .  A
C426        C506   1.478       .  S
Mg427       O434   2.150       .  S
Mg427       O435   2.145       .  S
Mg427       O428   2.274       .  S
Mg427       O429   2.309       .  S
Mg427       O456   2.268       .  S
O429        C433   1.272       .  A
O430       Mg437   2.329       .  S
O431        C450   1.268       .  A
O432        C452   1.279       .  A
O432       Mg448   2.330       .  S
O434       Mg448   2.152       .  S
O434        C445   1.235       .  S
O435       Mg454   2.154       .  S
O436       Mg448   2.311       .  S
Mg437       O453   2.293       .  S
O438       Mg454   2.258       .  S
H439        C444   1.081       .  S
O440       Mg448   2.144       .  S
O440        C443   1.236       .  S
H441        C443   1.081       .  S
H442        C445   1.081       .  S
O447       Mg454   2.308       .  S
C450        O455   1.274       .  A
C450        C579   1.474       .  S
O451        C452   1.271       .  A
C452        C549   1.480       .  S
O457       Mg459   2.153       .  S
O457      Mg1089   2.177       .  S
O457        C492   1.235       .  S
C458        O495   1.270       .  A
C458        H497   1.081       .  S
Mg459       O503   2.294       .  S
Mg459       O499   2.281       .  S
Mg459       O470   2.296       .  S
O460       Mg485   2.137       .  S
O460       C1105   1.235       .  S
O461       C1116   1.268   1_545  A
O461       Mg485   2.291       .  S
C462        O464   1.273       .  A
C462        O476   1.278       .  A
C462        C509   1.478       .  S
O463       Mg465   2.293       .  S
O464       Mg496   2.258       .  S
Mg465      O1081   2.177       .  S
Mg465       O471   2.156       .  S
Mg465       O479   2.291       .  S
Mg465       O467   2.320       .  S
C466        O504   1.277       .  A
C466       O1096   1.274       .  A
C466        C599   1.485       .  S
O467        C474   1.277       .  A
H468        C481   1.081       .  S
C469        O483   1.234   1_545  S
C469       O1108   1.268   1_545  A
C469        H494   1.081       .  S
O470        C493   1.270       .  A
O471       Mg485   2.169       .  S
O472       C1090   1.274   1_545  A
O472       Mg502   2.292       .  S
C473        O486   1.272       .  A
C473        C529   1.482       .  S
C474        O501   1.268       .  A
C474        C519   1.473       .  S
Mg475       O482   2.157       .  S
Mg475      O1107   2.169       .  S
Mg475       O476   2.316       .  S
Mg475       O477   2.294       .  S
Mg475       O504   2.294       .  S
O478       Mg485   2.286       .  S
O479        C498   1.277   1_545  A
O480       Mg496   2.305       .  S
C481       O1084   1.235       .  S
O482       Mg496   2.171       .  S
O483      Mg1099   2.169       .  S
O483       Mg502   2.140   1_565  S
O484       C1093   1.268       .  A
O484       Mg496   2.289       .  S
Mg485       O501   2.233       .  S
O486       Mg502   2.270       .  S
H487        C492   1.081       .  S
O488       Mg496   2.148       .  S
O488       C1115   1.233       .  S
H489        C491   1.081       .  S
H490        C493   1.081       .  S
C491       O1112   1.233       .  S
C492       O1085   1.268       .  A
O495       Mg502   2.300       .  S
C498       O1127   1.275       .  A
C498        C589   1.485       .  S
O499        C500   1.274       .  A
C500        C539   1.489       .  S
O503       C1122   1.275       .  A
C505        H511   1.083       .  S
C505        C506   1.404       .  A
C505        C510   1.401       .  A
C506        C507   1.406       .  A
C507        H512   1.083       .  S
C507        C508   1.397       .  A
C508        H513   1.083       .  S
C508        C509   1.404       .  A
C509        C510   1.406       .  A
C510        H514   1.083       .  S
C515        H521   1.083       .  S
C515        C516   1.404       .  A
C515        C520   1.400       .  A
C516        C517   1.405       .  A
C517        H522   1.083       .  S
C517        C518   1.395       .  A
C518        H523   1.083       .  S
C518        C519   1.403       .  A
C519        C520   1.405       .  A
C520        H524   1.083       .  S
C525        H531   1.083       .  S
C525        C526   1.403   1_556  A
C525        C530   1.397       .  A
C527        H532   1.083       .  S
C527        C528   1.399       .  A
C528        H533   1.083       .  S
C528        C529   1.404       .  A
C530        H534   1.083       .  S
C535        H541   1.083       .  S
C535        C536   1.404       .  A
C535        C540   1.400       .  A
C537        H542   1.083       .  S
C537        C538   1.403       .  A
C538        H543   1.083       .  S
C538        C539   1.406       .  A
C540        H544   1.083       .  S
C545        H551   1.083       .  S
C545        C546   1.408       .  A
C545        C550   1.399       .  A
C546        C547   1.403       .  A
C547        H552   1.083       .  S
C547        C548   1.400       .  A
C548        H553   1.083       .  S
C548        C549   1.408       .  A
C549        C550   1.403       .  A
C550        H554   1.083       .  S
C555        H561   1.083       .  S
C555        C556   1.409       .  A
C555        C560   1.399       .  A
C556        C557   1.404       .  A
C557        H562   1.083       .  S
C557        C558   1.402       .  A
C558        H563   1.083       .  S
C558        C559   1.409       .  A
C559        C560   1.403       .  A
C560        H564   1.083       .  S
C565        H571   1.083       .  S
C565        C566   1.404       .  A
C565        C570   1.403       .  A
C566        C567   1.407       .  A
C567        H572   1.083       .  S
C567        C568   1.399       .  A
C568        H573   1.083       .  S
C568        C569   1.404       .  A
C569        C570   1.409       .  A
C570        H574   1.083       .  S
C575        H581   1.083       .  S
C575        C576   1.407       .  A
C575        C580   1.395       .  A
C576        C577   1.402       .  A
C577        H582   1.083       .  S
C577        C578   1.400       .  A
C578        H583   1.083       .  S
C578        C579   1.408       .  A
C579        C580   1.401       .  A
C580        H584   1.083       .  S
C585        H591   1.083       .  S
C585        C586   1.404       .  A
C585       C1214   1.401       .  A
C586        C587   1.410       .  A
C587        H592   1.083       .  S
C587       C1212   1.400       .  A
C588        H593   1.083       .  S
C588       C1211   1.400       .  A
C588        C589   1.403   1_545  A
C589        C590   1.410       .  A
C590        H594   1.083       .  S
C590       C1209   1.401       .  A
C595        H601   1.083       .  S
C595       C1220   1.411       .  A
C595        C600   1.400       .  A
C596       C1219   1.411   1_545  A
C596        C597   1.403       .  A
C597        H602   1.083       .  S
C597        C598   1.400       .  A
C598        H603   1.083       .  S
C598       C1223   1.409       .  A
C599       C1222   1.409       .  A
C599        C600   1.403       .  A
C600        H604   1.083       .  S
C605        H611   1.083       .  S
C605        C606   1.405       .  A
C605        C610   1.393       .  A
C606       C1855   1.407       .  A
C607        H612   1.083       .  S
C607       C1854   1.407       .  A
C607        C608   1.405       .  A
C608        H613   1.083       .  S
C608       C1857   1.407       .  A
C609       C1856   1.407       .  A
C609        C610   1.405       .  A
C610        H614   1.083       .  S
C615        H621   1.083       .  S
C615       C1864   1.407       .  A
C615        C620   1.405       .  A
C616       C1863   1.407       .  A
C616        C617   1.407   1_655  A
C617        H622   1.083       .  S
C617        C618   1.394       .  A
C618        H623   1.083       .  S
C618        C619   1.404   1_455  A
C619       C1868   1.407       .  A
C620        H624   1.083       .  S
C620       C1867   1.407       .  A
O625       Mg627   2.140       .  S
O625        C660   1.234       .  S
C626       O1887   1.235       .  S
C626        O663   1.268       .  A
C626        H665   1.081       .  S
Mg627      O1904   2.166   1_455  S
Mg627       O671   2.287       .  S
Mg627       O667   2.229       .  S
Mg627       O638   2.289       .  S
O628      Mg1918   2.163   1_455  S
O628       Mg653   2.157       .  S
O629       Mg653   2.296       .  S
C630        O632   1.278       .  A
C630        O644   1.277       .  A
C630        C878   1.482       .  S
O631       C1907   1.270   1_455  A
O631       Mg633   2.302       .  S
O632       Mg664   2.294       .  S
Mg633       O639   2.153       .  S
Mg633       O647   2.289       .  S
Mg633       O635   2.277       .  S
C634        O672   1.276       .  A
C634        C908   1.487       .  S
O635        C642   1.273       .  A
H636        C649   1.081       .  S
C637        O651   1.233       .  S
C637        H662   1.081       .  S
O638        C661   1.268   1_455  A
O639       Mg653   2.183       .  S
O639       C1874   1.235       .  S
O640       Mg670   2.285       .  S
C641        O654   1.269       .  A
C641       O1894   1.278       .  A
C641        C918   1.482       .  S
C642        O669   1.276       .  A
C642        C888   1.476       .  S
Mg643       O650   2.155       .  S
Mg643       O644   2.301       .  S
Mg643       O645   2.301       .  S
Mg643       O672   2.294       .  S
O645       C1897   1.270       .  A
O646       C1889   1.278       .  A
O646       Mg653   2.334       .  S
O647        C666   1.274       .  A
O648       C1916   1.279       .  A
O648       Mg664   2.339       .  S
C649       O1893   1.270   1_455  A
O650       Mg664   2.183       .  S
O650       C1909   1.234       .  S
O651       Mg670   2.140       .  S
O652       Mg664   2.293       .  S
Mg653       O669   2.285       .  S
O654       Mg670   2.233       .  S
H655        C660   1.081       .  S
O656      Mg1875   2.166       .  S
O656       Mg664   2.165       .  S
H657        C659   1.081       .  S
H658        C661   1.081       .  S
C659       O1879   1.270       .  A
C661       O1898   1.234       .  S
O663       Mg670   2.290       .  S
C666        C898   1.487       .  S
O667        C668   1.269   1_455  A
C668       O1896   1.279       .  A
C668        C928   1.486       .  S
Mg670      O1876   2.163       .  S
O673       Mg675   2.163       .  S
O673      Mg1929   2.167   1_455  S
O673        C708   1.236       .  S
C674        O999   1.234       .  S
C674        O711   1.268       .  A
C674        H713   1.081       .  S
Mg675      O1016   2.174   1_554  S
Mg675       O719   2.334       .  S
Mg675       O715   2.286       .  S
Mg675       O686   2.292       .  S
O676      Mg1030   2.175   1_554  S
O676       Mg701   2.149       .  S
O676       C1945   1.235       .  S
O677       C1956   1.270       .  A
O677       Mg701   2.300       .  S
C678        O680   1.275       .  A
C678        O692   1.273       .  A
C678        C858   1.482       .  S
O679       C1019   1.268   1_554  A
O679       Mg681   2.289       .  S
O680       Mg712   2.283       .  S
Mg681      O1921   2.167       .  S
Mg681       O687   2.134       .  S
Mg681       O695   2.228       .  S
Mg681       O683   2.289       .  S
C682        O720   1.271   1_655  A
C682       O1936   1.279       .  A
C682        C931   1.482       .  S
O683        C690   1.272       .  A
H684        C697   1.081       .  S
C685        O699   1.236       .  S
C685       O1948   1.271       .  A
C685        H710   1.081       .  S
O686        C709   1.267   1_554  A
O687       Mg701   2.158       .  S
O687        C986   1.234       .  S
O688       C1930   1.279       .  A
O688       Mg718   2.333       .  S
C689        O702   1.277       .  A
C689       O1006   1.275       .  A
C689        C838   1.481       .  S
C690        O717   1.274       .  A
C690        C868   1.484       .  S
Mg691       O698   2.143       .  S
Mg691      O1947   2.164   1_455  S
Mg691       O692   2.291       .  S
Mg691       O693   2.289       .  S
Mg691       O720   2.243       .  S
O693       C1009   1.268   1_455  A
O694       C1001   1.275       .  A
O694       Mg701   2.295       .  S
O695        C714   1.269       .  A
O696       C1028   1.278       .  A
O696       Mg712   2.319       .  S
C697       O1924   1.235       .  S
C697       O1005   1.268   1_654  A
O698       Mg712   2.160       .  S
O698       C1021   1.233       .  S
O699      Mg1939   2.164       .  S
O699       Mg718   2.157       .  S
O700       C1933   1.271       .  A
O700       Mg712   2.301   1_655  S
Mg701       O717   2.289       .  S
O702       Mg718   2.281       .  S
H703        C708   1.081       .  S
O704       Mg987   2.174       .  S
O704       Mg712   2.149       .  S
O704       C1955   1.235   1_455  S
H705        C707   1.081       .  S
H706        C709   1.081       .  S
C707       O1952   1.235       .  S
C707        O991   1.268       .  A
C708       O1925   1.270   1_455  A
C709       O1010   1.233       .  S
O711       Mg718   2.291       .  S
C714       O1967   1.279       .  A
C714        C921   1.483       .  S
O715        C716   1.277   1_554  A
C716       O1008   1.278       .  A
C716        C848   1.488       .  S
Mg718       O988   2.175       .  S
O719       C1962   1.279       .  A
O721       Mg723   2.151       .  S
O721       Mg729   2.150       .  S
O721        C756   1.235       .  S
C722        O735   1.235       .  S
C722        O759   1.271       .  A
C722        H761   1.081       .  S
Mg723       O752   2.147       .  S
Mg723       O767   2.303       .  S
Mg723       O763   2.258       .  S
Mg723       O734   2.301       .  S
O724       Mg766   2.146       .  S
O724       Mg749   2.159       .  S
O724        C745   1.237       .  S
O725        C756   1.271       .  A
O725       Mg749   2.307       .  S
C726        O728   1.273       .  A
C726        O740   1.271       .  A
C726        C828   1.475       .  S
O727        C755   1.270       .  A
O727       Mg729   2.301       .  S
O728       Mg760   2.282       .  S
Mg729       O735   2.154       .  S
Mg729       O743   2.251       .  S
Mg729       O731   2.275       .  S
C730        O768   1.269       .  A
C730        O736   1.275       .  A
C730        C881   1.484       .  S
O731        C738   1.270       .  A
H732        C745   1.081       .  S
C733        O747   1.237       .  S
C733        O748   1.272       .  A
C733        H758   1.081       .  S
O734        C757   1.269       .  A
O735       Mg749   2.154       .  S
O736       Mg766   2.316       .  S
C737        O750   1.271       .  A
C737        O742   1.278       .  A
C737        C871   1.483       .  S
C738        O765   1.274       .  A
C738        C818   1.478       .  S
Mg739       O746   2.150       .  S
Mg739       O747   2.145       .  S
Mg739       O740   2.274       .  S
Mg739       O741   2.309       .  S
Mg739       O768   2.268       .  S
O741        C745   1.272       .  A
O742       Mg749   2.329       .  S
O743        C762   1.268       .  A
O744        C764   1.279       .  A
O744       Mg760   2.330       .  S
O746       Mg760   2.152       .  S
O746        C757   1.235       .  S
O747       Mg766   2.154       .  S
O748       Mg760   2.311       .  S
Mg749       O765   2.293       .  S
O750       Mg766   2.258       .  S
H751        C756   1.081       .  S
O752       Mg760   2.144       .  S
O752        C755   1.236       .  S
H753        C755   1.081       .  S
H754        C757   1.081       .  S
O759       Mg766   2.308       .  S
C762        O767   1.274       .  A
C762        C891   1.474       .  S
O763        C764   1.271       .  A
C764        C861   1.480       .  S
O769       Mg771   2.153   1_545  S
O769        C804   1.235   1_545  S
C770       O1095   1.236   1_554  S
C770        O807   1.270       .  A
C770        H809   1.081       .  S
Mg771      O1112   2.159       .  S
Mg771       O815   2.294       .  S
Mg771       O811   2.281       .  S
Mg771       O782   2.296       .  S
O772      Mg1126   2.155       .  S
O772       Mg797   2.137       .  S
O773       Mg797   2.291       .  S
C774        O776   1.273       .  A
C774        O788   1.278       .  A
C774        C821   1.478       .  S
O775       C1115   1.268       .  A
O775       Mg777   2.293       .  S
O776       Mg808   2.258       .  S
Mg777       O783   2.156       .  S
Mg777       O791   2.291       .  S
Mg777       O779   2.320       .  S
C778        O816   1.277       .  A
C778        C911   1.485   1_565  S
O779        C786   1.277       .  A
H780        C793   1.081       .  S
C781        O795   1.234       .  S
C781        H806   1.081       .  S
O782        C805   1.270       .  A
O783       Mg797   2.169       .  S
O783       C1082   1.236       .  S
O784       Mg814   2.292       .  S
C785        O798   1.272       .  A
C785       O1102   1.272   1_554  A
C785        C841   1.482       .  S
C786        O813   1.268       .  A
C786        C831   1.473       .  S
Mg787       O794   2.157       .  S
Mg787       O788   2.316       .  S
Mg787       O789   2.294       .  S
Mg787       O816   2.294       .  S
O789       C1105   1.268   1_564  A
O790       C1097   1.272       .  A
O790       Mg797   2.286       .  S
O791        C810   1.277       .  A
O792       C1124   1.276   1_554  A
O792       Mg808   2.305       .  S
C793       O1101   1.268   1_545  A
O794       Mg808   2.171       .  S
O794       C1117   1.236   1_554  S
O795       Mg814   2.140       .  S
O796       Mg808   2.289       .  S
Mg797       O813   2.233       .  S
O798       Mg814   2.270       .  S
H799        C804   1.081       .  S
O800      Mg1083   2.159   1_554  S
O800       Mg808   2.148       .  S
H801        C803   1.081       .  S
H802        C805   1.081       .  S
C803       O1087   1.268   1_554  A
C805       O1106   1.236       .  S
O807       Mg814   2.300       .  S
C810        C901   1.485       .  S
O811        C812   1.274       .  A
C812       O1104   1.276       .  A
C812        C851   1.489       .  S
Mg814      O1084   2.155   1_554  S
C817        H823   1.083       .  S
C817        C818   1.404       .  A
C817        C822   1.401       .  A
C818        C819   1.406       .  A
C819        H824   1.083       .  S
C819        C820   1.397       .  A
C820        H825   1.083       .  S
C820        C821   1.404       .  A
C821        C822   1.406       .  A
C822        H826   1.083       .  S
C827        H833   1.083       .  S
C827        C828   1.404       .  A
C827        C832   1.400       .  A
C828        C829   1.405       .  A
C829        H834   1.083       .  S
C829        C830   1.395       .  A
C830        H835   1.083       .  S
C830        C831   1.403       .  A
C831        C832   1.405       .  A
C832        H836   1.083       .  S
C837        H843   1.083       .  S
C837        C838   1.403       .  A
C837        C842   1.397       .  A
C838       C1151   1.408       .  A
C839        H844   1.083       .  S
C839       C1150   1.408       .  A
C839        C840   1.399       .  A
C840        H845   1.083       .  S
C840        C841   1.404       .  A
C841       C1154   1.408   1_554  A
C842        H846   1.083       .  S
C842       C1153   1.408       .  A
C847        H853   1.083       .  S
C847        C848   1.404   1_554  A
C847        C852   1.400       .  A
C848       C1161   1.408       .  A
C849        H854   1.083       .  S
C849       C1160   1.408       .  A
C849        C850   1.403       .  A
C850        H855   1.083       .  S
C850        C851   1.406       .  A
C851       C1164   1.408       .  A
C852        H856   1.083       .  S
C852       C1163   1.408   1_554  A
C857        H863   1.083       .  S
C857        C858   1.408       .  A
C857        C862   1.399       .  A
C858        C859   1.403       .  A
C859        H864   1.083       .  S
C859        C860   1.400       .  A
C860        H865   1.083       .  S
C860        C861   1.408       .  A
C861        C862   1.403       .  A
C862        H866   1.083       .  S
C867        H873   1.083       .  S
C867        C868   1.409       .  A
C867        C872   1.399       .  A
C868        C869   1.404       .  A
C869        H874   1.083       .  S
C869        C870   1.402       .  A
C870        H875   1.083       .  S
C870        C871   1.409       .  A
C871        C872   1.403       .  A
C872        H876   1.083       .  S
C877        H883   1.083       .  S
C877        C878   1.404       .  A
C877        C882   1.403       .  A
C878        C879   1.407       .  A
C879        H884   1.083       .  S
C879        C880   1.399       .  A
C880        H885   1.083       .  S
C880        C881   1.404       .  A
C881        C882   1.409       .  A
C882        H886   1.083       .  S
C887        H893   1.083       .  S
C887        C888   1.407       .  A
C887        C892   1.395       .  A
C888        C889   1.402       .  A
C889        H894   1.083       .  S
C889        C890   1.400       .  A
C890        H895   1.083       .  S
C890        C891   1.408       .  A
C891        C892   1.401       .  A
C892        H896   1.083       .  S
C897        H903   1.083       .  S
C897        C898   1.404       .  A
C898        C899   1.410   1_565  A
C899        H904   1.083       .  S
C900        H905   1.083       .  S
C900        C901   1.403       .  A
C901        C902   1.410       .  A
C902        H906   1.083       .  S
C907        H913   1.083       .  S
C907        C912   1.400       .  A
C908        C909   1.403       .  A
C909        H914   1.083       .  S
C909        C910   1.400       .  A
C910        H915   1.083       .  S
C911        C912   1.403   1_545  A
C912        H916   1.083       .  S
C917        H923   1.083       .  S
C917        C918   1.405       .  A
C917        C922   1.393       .  A
C918       C2167   1.407       .  A
C919        H924   1.083       .  S
C919       C2166   1.407       .  A
C919        C920   1.405       .  A
C920        H925   1.083       .  S
C920       C2169   1.407       .  A
C921       C2168   1.407       .  A
C921        C922   1.405       .  A
C922        H926   1.083       .  S
C927        H933   1.083       .  S
C927       C2176   1.407       .  A
C927        C932   1.405       .  A
C928       C2175   1.407       .  A
C928        C929   1.407   1_655  A
C929        H934   1.083       .  S
C929        C930   1.394       .  A
C930        H935   1.083       .  S
C930        C931   1.404   1_455  A
C931       C2180   1.407       .  A
C932        H936   1.083       .  S
C932       C2179   1.407       .  A
O937       Mg939   2.140       .  S
O937        C972   1.234       .  S
C938       O2199   1.235       .  S
C938        O975   1.268       .  A
C938        H977   1.081       .  S
Mg939      O2216   2.166   1_455  S
Mg939       O983   2.287       .  S
Mg939       O979   2.229       .  S
Mg939       O950   2.289       .  S
O940      Mg2230   2.163   1_455  S
O940       Mg965   2.157       .  S
O941       Mg965   2.296       .  S
C942        O944   1.278       .  A
C942        O956   1.277       .  A
C942       C1190   1.482       .  S
O943       C2219   1.270   1_455  A
O943       Mg945   2.302       .  S
O944       Mg976   2.294       .  S
Mg945       O951   2.153       .  S
Mg945       O959   2.289       .  S
Mg945       O947   2.277       .  S
C946        O984   1.276       .  A
C946       C1220   1.487       .  S
O947        C954   1.273       .  A
H948        C961   1.081       .  S
C949        O963   1.233       .  S
C949        H974   1.081       .  S
O950        C973   1.268   1_455  A
O951       Mg965   2.183       .  S
O951       C2186   1.235       .  S
O952       Mg982   2.285       .  S
C953        O966   1.269       .  A
C953       O2206   1.278       .  A
C953       C1230   1.482       .  S
C954        O981   1.276       .  A
C954       C1200   1.476       .  S
Mg955       O962   2.155       .  S
Mg955       O956   2.301       .  S
Mg955       O957   2.301       .  S
Mg955       O984   2.294       .  S
O957       C2209   1.270       .  A
O958       C2201   1.278       .  A
O958       Mg965   2.334       .  S
O959        C978   1.274       .  A
O960       C2228   1.279       .  A
O960       Mg976   2.339       .  S
C961       O2205   1.270   1_455  A
O962       Mg976   2.183       .  S
O962       C2221   1.234       .  S
O963       Mg982   2.140       .  S
O964       Mg976   2.293       .  S
Mg965       O981   2.285       .  S
O966       Mg982   2.233       .  S
H967        C972   1.081       .  S
O968      Mg2187   2.166       .  S
O968       Mg976   2.165       .  S
H969        C971   1.081       .  S
H970        C973   1.081       .  S
C971       O2191   1.270       .  A
C973       O2210   1.234       .  S
O975       Mg982   2.290       .  S
C978       C1210   1.487       .  S
O979        C980   1.269   1_455  A
C980       O2208   1.279       .  A
C980       C1240   1.486       .  S
Mg982      O2188   2.163       .  S
O985       Mg987   2.163       .  S
O985      Mg2241   2.167   1_455  S
O985       C1020   1.236       .  S
C986       O1023   1.268   1_554  A
C986       H1025   1.081       .  S
Mg987      O1031   2.334       .  S
Mg987      O1027   2.286       .  S
Mg987       O998   2.292       .  S
O988      Mg1013   2.149       .  S
O988       C2257   1.235       .  S
O989       C2268   1.270       .  A
O989      Mg1013   2.300       .  S
C990        O992   1.275       .  A
C990       O1004   1.273       .  A
C990       C1170   1.482       .  S
O991       Mg993   2.289       .  S
O992      Mg1024   2.283       .  S
Mg993      O2233   2.167       .  S
Mg993       O999   2.134       .  S
Mg993      O1007   2.228       .  S
Mg993       O995   2.289       .  S
C994       O1032   1.271   1_655  A
C994       O2248   1.279       .  A
C994       C1243   1.482       .  S
O995       C1002   1.272       .  A
H996       C1009   1.081       .  S
C997       O1011   1.236       .  S
C997       O2260   1.271       .  A
C997       H1022   1.081       .  S
O998       C1021   1.267       .  A
O999      Mg1013   2.158       .  S
O1000      C2242   1.279       .  A
O1000     Mg1030   2.333       .  S
C1001      O1014   1.277   1_554  A
C1001      C1150   1.481       .  S
C1002      O1029   1.274       .  A
C1002      C1180   1.484       .  S
Mg1003     O1010   2.143       .  S
Mg1003     O2259   2.164   1_455  S
Mg1003     O1004   2.291       .  S
Mg1003     O1005   2.289       .  S
Mg1003     O1032   2.243       .  S
O1006     Mg1013   2.295       .  S
O1007      C1026   1.269       .  A
O1008     Mg1024   2.319       .  S
C1009      O2236   1.235       .  S
O1010     Mg1024   2.160       .  S
O1011     Mg2251   2.164       .  S
O1011     Mg1030   2.157       .  S
O1012      C2245   1.271       .  A
O1012     Mg1024   2.301   1_655  S
Mg1013     O1029   2.289       .  S
O1014     Mg1030   2.281       .  S
H1015      C1020   1.081       .  S
O1016     Mg1024   2.149       .  S
O1016      C2267   1.235   1_455  S
H1017      C1019   1.081       .  S
H1018      C1021   1.081       .  S
C1019      O2264   1.235       .  S
C1020      O2237   1.270   1_455  A
O1023     Mg1030   2.291       .  S
C1026      O2279   1.279       .  A
C1026      C1233   1.483       .  S
O1027      C1028   1.277       .  A
C1028      C1160   1.488       .  S
O1031      C2274   1.279       .  A
O1033     Mg1035   2.151       .  S
O1033     Mg1041   2.150       .  S
O1033      C1068   1.235       .  S
C1034      O1047   1.235       .  S
C1034      O1071   1.271       .  A
C1034      H1073   1.081       .  S
Mg1035     O1064   2.147       .  S
Mg1035     O1079   2.303       .  S
Mg1035     O1075   2.258       .  S
Mg1035     O1046   2.301       .  S
O1036     Mg1078   2.146       .  S
O1036     Mg1061   2.159       .  S
O1036      C1057   1.237       .  S
O1037      C1068   1.271       .  A
O1037     Mg1061   2.307       .  S
C1038      O1040   1.273       .  A
C1038      O1052   1.271       .  A
C1038      C1140   1.475       .  S
O1039      C1067   1.270       .  A
O1039     Mg1041   2.301       .  S
O1040     Mg1072   2.282       .  S
Mg1041     O1047   2.154       .  S
Mg1041     O1055   2.251       .  S
Mg1041     O1043   2.275       .  S
C1042      O1080   1.269       .  A
C1042      O1048   1.275       .  A
C1042      C1193   1.484       .  S
O1043      C1050   1.270       .  A
H1044      C1057   1.081       .  S
C1045      O1059   1.237       .  S
C1045      O1060   1.272       .  A
C1045      H1070   1.081       .  S
O1046      C1069   1.269       .  A
O1047     Mg1061   2.154       .  S
O1048     Mg1078   2.316       .  S
C1049      O1062   1.271       .  A
C1049      O1054   1.278       .  A
C1049      C1183   1.483       .  S
C1050      O1077   1.274       .  A
C1050      C1130   1.478       .  S
Mg1051     O1058   2.150       .  S
Mg1051     O1059   2.145       .  S
Mg1051     O1052   2.274       .  S
Mg1051     O1053   2.309       .  S
Mg1051     O1080   2.268       .  S
O1053      C1057   1.272       .  A
O1054     Mg1061   2.329       .  S
O1055      C1074   1.268       .  A
O1056      C1076   1.279       .  A
O1056     Mg1072   2.330       .  S
O1058     Mg1072   2.152       .  S
O1058      C1069   1.235       .  S
O1059     Mg1078   2.154       .  S
O1060     Mg1072   2.311       .  S
Mg1061     O1077   2.293       .  S
O1062     Mg1078   2.258       .  S
H1063      C1068   1.081       .  S
O1064     Mg1072   2.144       .  S
O1064      C1067   1.236       .  S
H1065      C1067   1.081       .  S
H1066      C1069   1.081       .  S
O1071     Mg1078   2.308       .  S
C1074      O1079   1.274       .  A
C1074      C1203   1.474       .  S
O1075      C1076   1.271       .  A
C1076      C1173   1.480       .  S
O1081     Mg1083   2.153   1_545  S
O1081      C1116   1.235   1_545  S
C1082      O1119   1.270       .  A
C1082      H1121   1.081       .  S
Mg1083     O1127   2.294       .  S
Mg1083     O1123   2.281       .  S
Mg1083     O1094   2.296       .  S
O1084     Mg1109   2.137       .  S
O1085     Mg1109   2.291       .  S
C1086      O1088   1.273       .  A
C1086      O1100   1.278       .  A
C1086      C1133   1.478       .  S
O1087     Mg1089   2.293       .  S
O1088     Mg1120   2.258       .  S
Mg1089     O1095   2.156       .  S
Mg1089     O1103   2.291       .  S
Mg1089     O1091   2.320       .  S
C1090      O1128   1.277       .  A
C1090      C1223   1.485   1_565  S
O1091      C1098   1.277       .  A
H1092      C1105   1.081       .  S
C1093      O1107   1.234       .  S
C1093      H1118   1.081       .  S
O1094      C1117   1.270       .  A
O1095     Mg1109   2.169       .  S
O1096     Mg1126   2.292       .  S
C1097      O1110   1.272       .  A
C1097      C1153   1.482       .  S
C1098      O1125   1.268       .  A
C1098      C1143   1.473       .  S
Mg1099     O1106   2.157       .  S
Mg1099     O1100   2.316       .  S
Mg1099     O1101   2.294       .  S
Mg1099     O1128   2.294       .  S
O1102     Mg1109   2.286       .  S
O1103      C1122   1.277       .  A
O1104     Mg1120   2.305       .  S
O1106     Mg1120   2.171       .  S
O1107     Mg1126   2.140       .  S
O1108     Mg1120   2.289       .  S
Mg1109     O1125   2.233       .  S
O1110     Mg1126   2.270       .  S
H1111      C1116   1.081       .  S
O1112     Mg1120   2.148       .  S
H1113      C1115   1.081       .  S
H1114      C1117   1.081       .  S
O1119     Mg1126   2.300       .  S
C1122      C1213   1.485       .  S
O1123      C1124   1.274       .  A
C1124      C1163   1.489       .  S
C1129      H1135   1.083       .  S
C1129      C1130   1.404       .  A
C1129      C1134   1.401       .  A
C1130      C1131   1.406       .  A
C1131      H1136   1.083       .  S
C1131      C1132   1.397       .  A
C1132      H1137   1.083       .  S
C1132      C1133   1.404       .  A
C1133      C1134   1.406       .  A
C1134      H1138   1.083       .  S
C1139      H1145   1.083       .  S
C1139      C1140   1.404       .  A
C1139      C1144   1.400       .  A
C1140      C1141   1.405       .  A
C1141      H1146   1.083       .  S
C1141      C1142   1.395       .  A
C1142      H1147   1.083       .  S
C1142      C1143   1.403       .  A
C1143      C1144   1.405       .  A
C1144      H1148   1.083       .  S
C1149      H1155   1.083       .  S
C1149      C1150   1.403   1_556  A
C1149      C1154   1.397       .  A
C1151      H1156   1.083       .  S
C1151      C1152   1.399       .  A
C1152      H1157   1.083       .  S
C1152      C1153   1.404       .  A
C1154      H1158   1.083       .  S
C1159      H1165   1.083       .  S
C1159      C1160   1.404       .  A
C1159      C1164   1.400       .  A
C1161      H1166   1.083       .  S
C1161      C1162   1.403       .  A
C1162      H1167   1.083       .  S
C1162      C1163   1.406       .  A
C1164      H1168   1.083       .  S
C1169      H1175   1.083       .  S
C1169      C1170   1.408       .  A
C1169      C1174   1.399       .  A
C1170      C1171   1.403       .  A
C1171      H1176   1.083       .  S
C1171      C1172   1.400       .  A
C1172      H1177   1.083       .  S
C1172      C1173   1.408       .  A
C1173      C1174   1.403       .  A
C1174      H1178   1.083       .  S
C1179      H1185   1.083       .  S
C1179      C1180   1.409       .  A
C1179      C1184   1.399       .  A
C1180      C1181   1.404       .  A
C1181      H1186   1.083       .  S
C1181      C1182   1.402       .  A
C1182      H1187   1.083       .  S
C1182      C1183   1.409       .  A
C1183      C1184   1.403       .  A
C1184      H1188   1.083       .  S
C1189      H1195   1.083       .  S
C1189      C1190   1.404       .  A
C1189      C1194   1.403       .  A
C1190      C1191   1.407       .  A
C1191      H1196   1.083       .  S
C1191      C1192   1.399       .  A
C1192      H1197   1.083       .  S
C1192      C1193   1.404       .  A
C1193      C1194   1.409       .  A
C1194      H1198   1.083       .  S
C1199      H1205   1.083       .  S
C1199      C1200   1.407       .  A
C1199      C1204   1.395       .  A
C1200      C1201   1.402       .  A
C1201      H1206   1.083       .  S
C1201      C1202   1.400       .  A
C1202      H1207   1.083       .  S
C1202      C1203   1.408       .  A
C1203      C1204   1.401       .  A
C1204      H1208   1.083       .  S
C1209      H1215   1.083       .  S
C1209      C1210   1.404       .  A
C1210      C1211   1.410   1_565  A
C1211      H1216   1.083       .  S
C1212      H1217   1.083       .  S
C1212      C1213   1.403       .  A
C1213      C1214   1.410       .  A
C1214      H1218   1.083       .  S
C1219      H1225   1.083       .  S
C1219      C1224   1.400       .  A
C1220      C1221   1.403       .  A
C1221      H1226   1.083       .  S
C1221      C1222   1.400       .  A
C1222      H1227   1.083       .  S
C1223      C1224   1.403   1_545  A
C1224      H1228   1.083       .  S
C1229      H1235   1.083       .  S
C1229      C1230   1.405       .  A
C1229      C1234   1.393       .  A
C1230      C2479   1.407       .  A
C1231      H1236   1.083       .  S
C1231      C2478   1.407       .  A
C1231      C1232   1.405       .  A
C1232      H1237   1.083       .  S
C1232      C2481   1.407       .  A
C1233      C2480   1.407       .  A
C1233      C1234   1.405       .  A
C1234      H1238   1.083       .  S
C1239      H1245   1.083       .  S
C1239      C2488   1.407       .  A
C1239      C1244   1.405       .  A
C1240      C2487   1.407       .  A
C1240      C1241   1.407   1_655  A
C1241      H1246   1.083       .  S
C1241      C1242   1.394       .  A
C1242      H1247   1.083       .  S
C1242      C1243   1.404   1_455  A
C1243      C2492   1.407       .  A
C1244      H1248   1.083       .  S
C1244      C2491   1.407       .  A
O1249     Mg1251   2.140       .  S
O1249     Mg1881   2.154   1_545  S
O1249      C1284   1.234       .  S
C1250      O1287   1.268   1_455  A
C1250      H1289   1.081   1_455  S
Mg1251     O1295   2.287       .  S
Mg1251     O1291   2.229       .  S
Mg1251     O1262   2.289       .  S
O1252     Mg1277   2.157       .  S
O1252      C1897   1.236       .  S
O1253      C1908   1.268       .  A
O1253     Mg1277   2.296       .  S
C1254      O1256   1.278       .  A
C1254      O1268   1.277       .  A
C1254      C1502   1.482       .  S
O1255     Mg1257   2.302       .  S
O1256     Mg1288   2.294       .  S
Mg1257     O1873   2.154       .  S
Mg1257     O1263   2.153       .  S
Mg1257     O1271   2.289       .  S
Mg1257     O1259   2.277       .  S
C1258      O1296   1.276       .  A
C1258      O1888   1.272   1_545  A
C1258      C1532   1.487       .  S
O1259      C1266   1.273       .  A
H1260      C1273   1.081       .  S
C1261      O1275   1.233       .  S
C1261      O1900   1.267       .  A
C1261      H1286   1.081       .  S
O1262      C1285   1.268       .  A
O1263     Mg1277   2.183       .  S
O1264      C1882   1.272       .  A
O1264     Mg1294   2.285       .  S
C1265      O1278   1.269   1_455  A
C1265      C1542   1.482       .  S
C1266      O1293   1.276       .  A
C1266      C1512   1.476       .  S
Mg1267     O1274   2.155       .  S
Mg1267     O1899   2.156   1_545  S
Mg1267     O1268   2.301       .  S
Mg1267     O1269   2.301       .  S
Mg1267     O1296   2.294       .  S
O1270     Mg1277   2.334       .  S
O1271      C1290   1.274       .  A
O1272     Mg1288   2.339       .  S
C1273      O1876   1.236   1_545  S
O1274     Mg1288   2.183       .  S
O1275     Mg1891   2.156       .  S
O1275     Mg1294   2.140       .  S
O1276      C1885   1.267   1_545  A
O1276     Mg1288   2.293       .  S
Mg1277     O1293   2.285       .  S
O1278     Mg1294   2.233       .  S
H1279      C1284   1.081       .  S
O1280     Mg1288   2.165       .  S
O1280      C1907   1.236   1_545  S
H1281      C1283   1.081       .  S
H1282      C1285   1.081       .  S
C1283      O1904   1.236       .  S
C1284      O1877   1.268   1_545  A
O1287     Mg1294   2.290       .  S
C1290      O1919   1.272       .  A
C1290      C1522   1.487       .  S
O1291      C1292   1.269       .  A
C1292      C1552   1.486       .  S
O1295      C1914   1.272   1_545  A
O1297     Mg1299   2.163       .  S
O1297      C1332   1.236       .  S
C1298      O1623   1.234       .  S
C1298      O1335   1.268       .  A
C1298      H1337   1.081       .  S
Mg1299     O1640   2.174   1_554  S
Mg1299     O1343   2.334       .  S
Mg1299     O1339   2.286       .  S
Mg1299     O1310   2.292       .  S
O1300     Mg1654   2.175   1_554  S
O1300     Mg1325   2.149       .  S
O1301     Mg1325   2.300       .  S
C1302      O1304   1.275       .  A
C1302      O1316   1.273       .  A
C1302      C1482   1.482       .  S
O1303      C1643   1.268   1_554  A
O1303     Mg1305   2.289       .  S
O1304     Mg1336   2.283       .  S
Mg1305     O1311   2.134       .  S
Mg1305     O1319   2.228       .  S
Mg1305     O1307   2.289       .  S
C1306      O1344   1.271       .  A
C1306      C1555   1.482       .  S
O1307      C1314   1.272       .  A
H1308      C1321   1.081       .  S
C1309      O1323   1.236       .  S
C1309      H1334   1.081       .  S
O1310      C1333   1.267   1_554  A
O1311     Mg1325   2.158       .  S
O1311      C1610   1.234       .  S
O1312     Mg1342   2.333       .  S
C1313      O1326   1.277       .  A
C1313      O1630   1.275       .  A
C1313      C1462   1.481       .  S
C1314      O1341   1.274       .  A
C1314      C1492   1.484       .  S
Mg1315     O1322   2.143       .  S
Mg1315     O1316   2.291       .  S
Mg1315     O1317   2.289       .  S
Mg1315     O1344   2.243       .  S
O1317      C1633   1.268       .  A
O1318      C1625   1.275       .  A
O1318     Mg1325   2.295       .  S
O1319      C1338   1.269   1_655  A
O1320      C1652   1.278       .  A
O1320     Mg1336   2.319       .  S
C1321      O1629   1.268   1_554  A
O1322     Mg1336   2.160       .  S
O1322      C1645   1.233       .  S
O1323     Mg1342   2.157       .  S
O1324     Mg1336   2.301       .  S
Mg1325     O1341   2.289       .  S
O1326     Mg1342   2.281       .  S
H1327      C1332   1.081       .  S
O1328     Mg1611   2.174       .  S
O1328     Mg1336   2.149       .  S
H1329      C1331   1.081       .  S
H1330      C1333   1.081       .  S
C1331      O1615   1.268       .  A
C1333      O1634   1.233       .  S
O1335     Mg1342   2.291       .  S
C1338      C1545   1.483       .  S
O1339      C1340   1.277   1_554  A
C1340      O1632   1.278       .  A
C1340      C1472   1.488       .  S
Mg1342     O1612   2.175       .  S
O1345     Mg1347   2.151       .  S
O1345     Mg1353   2.150       .  S
O1345      C1380   1.235       .  S
C1346      O1359   1.235       .  S
C1346      O1383   1.271       .  A
C1346      H1385   1.081       .  S
Mg1347     O1376   2.147       .  S
Mg1347     O1391   2.303       .  S
Mg1347     O1387   2.258       .  S
Mg1347     O1358   2.301       .  S
O1348     Mg1390   2.146       .  S
O1348     Mg1373   2.159       .  S
O1348      C1369   1.237       .  S
O1349      C1380   1.271       .  A
O1349     Mg1373   2.307       .  S
C1350      O1352   1.273       .  A
C1350      O1364   1.271       .  A
C1350      C1452   1.475       .  S
O1351      C1379   1.270       .  A
O1351     Mg1353   2.301       .  S
O1352     Mg1384   2.282       .  S
Mg1353     O1359   2.154       .  S
Mg1353     O1367   2.251       .  S
Mg1353     O1355   2.275       .  S
C1354      O1392   1.269       .  A
C1354      O1360   1.275       .  A
C1354      C1505   1.484       .  S
O1355      C1362   1.270       .  A
H1356      C1369   1.081       .  S
C1357      O1371   1.237       .  S
C1357      O1372   1.272       .  A
C1357      H1382   1.081       .  S
O1358      C1381   1.269       .  A
O1359     Mg1373   2.154       .  S
O1360     Mg1390   2.316       .  S
C1361      O1374   1.271       .  A
C1361      O1366   1.278       .  A
C1361      C1495   1.483       .  S
C1362      O1389   1.274       .  A
C1362      C1442   1.478       .  S
Mg1363     O1370   2.150       .  S
Mg1363     O1371   2.145       .  S
Mg1363     O1364   2.274       .  S
Mg1363     O1365   2.309       .  S
Mg1363     O1392   2.268       .  S
O1365      C1369   1.272       .  A
O1366     Mg1373   2.329       .  S
O1367      C1386   1.268       .  A
O1368      C1388   1.279       .  A
O1368     Mg1384   2.330       .  S
O1370     Mg1384   2.152       .  S
O1370      C1381   1.235       .  S
O1371     Mg1390   2.154       .  S
O1372     Mg1384   2.311       .  S
Mg1373     O1389   2.293       .  S
O1374     Mg1390   2.258       .  S
H1375      C1380   1.081       .  S
O1376     Mg1384   2.144       .  S
O1376      C1379   1.236       .  S
H1377      C1379   1.081       .  S
H1378      C1381   1.081       .  S
O1383     Mg1390   2.308       .  S
C1386      O1391   1.274       .  A
C1386      C1515   1.474       .  S
O1387      C1388   1.271       .  A
C1388      C1485   1.480       .  S
O1393     Mg1395   2.153       .  S
O1393     Mg2025   2.177       .  S
O1393      C1428   1.235       .  S
C1394      O1719   1.236   1_554  S
C1394      O1431   1.270       .  A
C1394      H1433   1.081       .  S
Mg1395     O1736   2.159       .  S
Mg1395     O1439   2.294       .  S
Mg1395     O1435   2.281       .  S
Mg1395     O1406   2.296       .  S
O1396     Mg1750   2.155       .  S
O1396     Mg1421   2.137       .  S
O1396      C2041   1.235       .  S
O1397      C2052   1.268   1_545  A
O1397     Mg1421   2.291       .  S
C1398      O1400   1.273       .  A
C1398      O1412   1.278       .  A
C1398      C1445   1.478       .  S
O1399      C1739   1.268   1_545  A
O1399     Mg1401   2.293       .  S
O1400     Mg1432   2.258       .  S
Mg1401     O2017   2.177       .  S
Mg1401     O1407   2.156       .  S
Mg1401     O1415   2.291       .  S
Mg1401     O1403   2.320       .  S
C1402      O1440   1.277       .  A
C1402      O2032   1.274       .  A
C1402      C1535   1.485       .  S
O1403      C1410   1.277       .  A
H1404      C1417   1.081       .  S
C1405      O1419   1.234   1_545  S
C1405      O2044   1.268   1_545  A
C1405      H1430   1.081       .  S
O1406      C1429   1.270       .  A
O1407     Mg1421   2.169       .  S
O1407      C1706   1.236       .  S
O1408      C2026   1.274   1_545  A
O1408     Mg1438   2.292       .  S
C1409      O1422   1.272       .  A
C1409      O1726   1.272   1_554  A
C1409      C1465   1.482       .  S
C1410      O1437   1.268       .  A
C1410      C1455   1.473       .  S
Mg1411     O1418   2.157       .  S
Mg1411     O2043   2.169       .  S
Mg1411     O1412   2.316       .  S
Mg1411     O1413   2.294       .  S
Mg1411     O1440   2.294       .  S
O1413      C1729   1.268   1_554  A
O1414      C1721   1.272       .  A
O1414     Mg1421   2.286       .  S
O1415      C1434   1.277   1_545  A
O1416      C1748   1.276   1_554  A
O1416     Mg1432   2.305       .  S
C1417      O2020   1.235       .  S
C1417      O1725   1.268       .  A
O1418     Mg1432   2.171       .  S
O1418      C1741   1.236   1_554  S
O1419     Mg2035   2.169       .  S
O1419     Mg1438   2.140   1_565  S
O1420      C2029   1.268       .  A
O1420     Mg1432   2.289       .  S
Mg1421     O1437   2.233       .  S
O1422     Mg1438   2.270       .  S
H1423      C1428   1.081       .  S
O1424     Mg1707   2.159   1_554  S
O1424     Mg1432   2.148       .  S
O1424      C2051   1.233       .  S
H1425      C1427   1.081       .  S
H1426      C1429   1.081       .  S
C1427      O2048   1.233       .  S
C1427      O1711   1.268   1_564  A
C1428      O2021   1.268       .  A
C1429      O1730   1.236       .  S
O1431     Mg1438   2.300       .  S
C1434      O2063   1.275       .  A
C1434      C1525   1.485       .  S
O1435      C1436   1.274       .  A
C1436      O1728   1.276       .  A
C1436      C1475   1.489       .  S
Mg1438     O1708   2.155   1_554  S
O1439      C2058   1.275       .  A
C1441      H1447   1.083       .  S
C1441      C1442   1.404       .  A
C1441      C1446   1.401       .  A
C1442      C1443   1.406       .  A
C1443      H1448   1.083       .  S
C1443      C1444   1.397       .  A
C1444      H1449   1.083       .  S
C1444      C1445   1.404       .  A
C1445      C1446   1.406       .  A
C1446      H1450   1.083       .  S
C1451      H1457   1.083       .  S
C1451      C1452   1.404       .  A
C1451      C1456   1.400       .  A
C1452      C1453   1.405       .  A
C1453      H1458   1.083       .  S
C1453      C1454   1.395       .  A
C1454      H1459   1.083       .  S
C1454      C1455   1.403       .  A
C1455      C1456   1.405       .  A
C1456      H1460   1.083       .  S
C1461      H1467   1.083       .  S
C1461      C1462   1.403       .  A
C1461      C1466   1.397       .  A
C1462      C1775   1.408       .  A
C1463      H1468   1.083       .  S
C1463      C1774   1.408       .  A
C1463      C1464   1.399       .  A
C1464      H1469   1.083       .  S
C1464      C1465   1.404       .  A
C1465      C1778   1.408   1_554  A
C1466      H1470   1.083       .  S
C1466      C1777   1.408       .  A
C1471      H1477   1.083       .  S
C1471      C1472   1.404   1_554  A
C1471      C1476   1.400       .  A
C1472      C1785   1.408       .  A
C1473      H1478   1.083       .  S
C1473      C1784   1.408       .  A
C1473      C1474   1.403       .  A
C1474      H1479   1.083       .  S
C1474      C1475   1.406       .  A
C1475      C1788   1.408       .  A
C1476      H1480   1.083       .  S
C1476      C1787   1.408   1_554  A
C1481      H1487   1.083       .  S
C1481      C1482   1.408       .  A
C1481      C1486   1.399       .  A
C1482      C1483   1.403       .  A
C1483      H1488   1.083       .  S
C1483      C1484   1.400       .  A
C1484      H1489   1.083       .  S
C1484      C1485   1.408       .  A
C1485      C1486   1.403       .  A
C1486      H1490   1.083       .  S
C1491      H1497   1.083       .  S
C1491      C1492   1.409       .  A
C1491      C1496   1.399       .  A
C1492      C1493   1.404       .  A
C1493      H1498   1.083       .  S
C1493      C1494   1.402       .  A
C1494      H1499   1.083       .  S
C1494      C1495   1.409       .  A
C1495      C1496   1.403       .  A
C1496      H1500   1.083       .  S
C1501      H1507   1.083       .  S
C1501      C1502   1.404       .  A
C1501      C1506   1.403       .  A
C1502      C1503   1.407       .  A
C1503      H1508   1.083       .  S
C1503      C1504   1.399       .  A
C1504      H1509   1.083       .  S
C1504      C1505   1.404       .  A
C1505      C1506   1.409       .  A
C1506      H1510   1.083       .  S
C1511      H1517   1.083       .  S
C1511      C1512   1.407       .  A
C1511      C1516   1.395       .  A
C1512      C1513   1.402       .  A
C1513      H1518   1.083       .  S
C1513      C1514   1.400       .  A
C1514      H1519   1.083       .  S
C1514      C1515   1.408       .  A
C1515      C1516   1.401       .  A
C1516      H1520   1.083       .  S
C1521      H1527   1.083       .  S
C1521      C1522   1.404       .  A
C1521      C2150   1.401       .  A
C1522      C1523   1.410       .  A
C1523      H1528   1.083       .  S
C1523      C2148   1.400       .  A
C1524      H1529   1.083       .  S
C1524      C2147   1.400       .  A
C1524      C1525   1.403   1_545  A
C1525      C1526   1.410       .  A
C1526      H1530   1.083       .  S
C1526      C2145   1.401       .  A
C1531      H1537   1.083       .  S
C1531      C2156   1.411       .  A
C1531      C1536   1.400       .  A
C1532      C2155   1.411   1_545  A
C1532      C1533   1.403       .  A
C1533      H1538   1.083       .  S
C1533      C1534   1.400       .  A
C1534      H1539   1.083       .  S
C1534      C2159   1.409       .  A
C1535      C2158   1.409       .  A
C1535      C1536   1.403       .  A
C1536      H1540   1.083       .  S
C1541      H1547   1.083       .  S
C1541      C1542   1.405   1_655  A
C1541      C1546   1.393       .  A
C1543      H1548   1.083       .  S
C1543      C1544   1.405       .  A
C1544      H1549   1.083       .  S
C1545      C1546   1.405   1_455  A
C1546      H1550   1.083       .  S
C1551      H1557   1.083       .  S
C1551      C1556   1.405       .  A
C1552      C1553   1.407       .  A
C1553      H1558   1.083       .  S
C1553      C1554   1.394       .  A
C1554      H1559   1.083       .  S
C1554      C1555   1.404       .  A
C1556      H1560   1.083       .  S
O1561     Mg1563   2.140       .  S
O1561     Mg2193   2.154   1_545  S
O1561      C1596   1.234       .  S
C1562      O1599   1.268   1_455  A
C1562      H1601   1.081   1_455  S
Mg1563     O1607   2.287       .  S
Mg1563     O1603   2.229       .  S
Mg1563     O1574   2.289       .  S
O1564     Mg1589   2.157       .  S
O1564      C2209   1.236       .  S
O1565      C2220   1.268       .  A
O1565     Mg1589   2.296       .  S
C1566      O1568   1.278       .  A
C1566      O1580   1.277       .  A
C1566      C1814   1.482       .  S
O1567     Mg1569   2.302       .  S
O1568     Mg1600   2.294       .  S
Mg1569     O2185   2.154       .  S
Mg1569     O1575   2.153       .  S
Mg1569     O1583   2.289       .  S
Mg1569     O1571   2.277       .  S
C1570      O1608   1.276       .  A
C1570      O2200   1.272   1_545  A
C1570      C1844   1.487       .  S
O1571      C1578   1.273       .  A
H1572      C1585   1.081       .  S
C1573      O1587   1.233       .  S
C1573      O2212   1.267       .  A
C1573      H1598   1.081       .  S
O1574      C1597   1.268       .  A
O1575     Mg1589   2.183       .  S
O1576      C2194   1.272       .  A
O1576     Mg1606   2.285       .  S
C1577      O1590   1.269   1_455  A
C1577      C1854   1.482       .  S
C1578      O1605   1.276       .  A
C1578      C1824   1.476       .  S
Mg1579     O1586   2.155       .  S
Mg1579     O2211   2.156   1_545  S
Mg1579     O1580   2.301       .  S
Mg1579     O1581   2.301       .  S
Mg1579     O1608   2.294       .  S
O1582     Mg1589   2.334       .  S
O1583      C1602   1.274       .  A
O1584     Mg1600   2.339       .  S
C1585      O2188   1.236   1_545  S
O1586     Mg1600   2.183       .  S
O1587     Mg2203   2.156       .  S
O1587     Mg1606   2.140       .  S
O1588      C2197   1.267   1_545  A
O1588     Mg1600   2.293       .  S
Mg1589     O1605   2.285       .  S
O1590     Mg1606   2.233       .  S
H1591      C1596   1.081       .  S
O1592     Mg1600   2.165       .  S
O1592      C2219   1.236   1_545  S
H1593      C1595   1.081       .  S
H1594      C1597   1.081       .  S
C1595      O2216   1.236       .  S
C1596      O2189   1.268   1_545  A
O1599     Mg1606   2.290       .  S
C1602      O2231   1.272       .  A
C1602      C1834   1.487       .  S
O1603      C1604   1.269       .  A
C1604      C1864   1.486       .  S
O1607      C2226   1.272   1_545  A
O1609     Mg1611   2.163       .  S
O1609      C1644   1.236       .  S
C1610      O1647   1.268   1_554  A
C1610      H1649   1.081       .  S
Mg1611     O1655   2.334       .  S
Mg1611     O1651   2.286       .  S
Mg1611     O1622   2.292       .  S
O1612     Mg1637   2.149       .  S
O1613     Mg1637   2.300       .  S
C1614      O1616   1.275       .  A
C1614      O1628   1.273       .  A
C1614      C1794   1.482       .  S
O1615     Mg1617   2.289       .  S
O1616     Mg1648   2.283       .  S
Mg1617     O1623   2.134       .  S
Mg1617     O1631   2.228       .  S
Mg1617     O1619   2.289       .  S
C1618      O1656   1.271       .  A
C1618      C1867   1.482       .  S
O1619      C1626   1.272       .  A
H1620      C1633   1.081       .  S
C1621      O1635   1.236       .  S
C1621      H1646   1.081       .  S
O1622      C1645   1.267       .  A
O1623     Mg1637   2.158       .  S
O1624     Mg1654   2.333       .  S
C1625      O1638   1.277   1_554  A
C1625      C1774   1.481       .  S
C1626      O1653   1.274       .  A
C1626      C1804   1.484       .  S
Mg1627     O1634   2.143       .  S
Mg1627     O1628   2.291       .  S
Mg1627     O1629   2.289       .  S
Mg1627     O1656   2.243       .  S
O1630     Mg1637   2.295       .  S
O1631      C1650   1.269   1_655  A
O1632     Mg1648   2.319       .  S
O1634     Mg1648   2.160       .  S
O1635     Mg1654   2.157       .  S
O1636     Mg1648   2.301       .  S
Mg1637     O1653   2.289       .  S
O1638     Mg1654   2.281       .  S
H1639      C1644   1.081       .  S
O1640     Mg1648   2.149       .  S
H1641      C1643   1.081       .  S
H1642      C1645   1.081       .  S
O1647     Mg1654   2.291       .  S
C1650      C1857   1.483       .  S
O1651      C1652   1.277       .  A
C1652      C1784   1.488       .  S
O1657     Mg1659   2.151       .  S
O1657     Mg1665   2.150       .  S
O1657      C1692   1.235       .  S
C1658      O1671   1.235       .  S
C1658      O1695   1.271       .  A
C1658      H1697   1.081       .  S
Mg1659     O1688   2.147       .  S
Mg1659     O1703   2.303       .  S
Mg1659     O1699   2.258       .  S
Mg1659     O1670   2.301       .  S
O1660     Mg1702   2.146       .  S
O1660     Mg1685   2.159       .  S
O1660      C1681   1.237       .  S
O1661      C1692   1.271       .  A
O1661     Mg1685   2.307       .  S
C1662      O1664   1.273       .  A
C1662      O1676   1.271       .  A
C1662      C1764   1.475       .  S
O1663      C1691   1.270       .  A
O1663     Mg1665   2.301       .  S
O1664     Mg1696   2.282       .  S
Mg1665     O1671   2.154       .  S
Mg1665     O1679   2.251       .  S
Mg1665     O1667   2.275       .  S
C1666      O1704   1.269       .  A
C1666      O1672   1.275       .  A
C1666      C1817   1.484       .  S
O1667      C1674   1.270       .  A
H1668      C1681   1.081       .  S
C1669      O1683   1.237       .  S
C1669      O1684   1.272       .  A
C1669      H1694   1.081       .  S
O1670      C1693   1.269       .  A
O1671     Mg1685   2.154       .  S
O1672     Mg1702   2.316       .  S
C1673      O1686   1.271       .  A
C1673      O1678   1.278       .  A
C1673      C1807   1.483       .  S
C1674      O1701   1.274       .  A
C1674      C1754   1.478       .  S
Mg1675     O1682   2.150       .  S
Mg1675     O1683   2.145       .  S
Mg1675     O1676   2.274       .  S
Mg1675     O1677   2.309       .  S
Mg1675     O1704   2.268       .  S
O1677      C1681   1.272       .  A
O1678     Mg1685   2.329       .  S
O1679      C1698   1.268       .  A
O1680      C1700   1.279       .  A
O1680     Mg1696   2.330       .  S
O1682     Mg1696   2.152       .  S
O1682      C1693   1.235       .  S
O1683     Mg1702   2.154       .  S
O1684     Mg1696   2.311       .  S
Mg1685     O1701   2.293       .  S
O1686     Mg1702   2.258       .  S
H1687      C1692   1.081       .  S
O1688     Mg1696   2.144       .  S
O1688      C1691   1.236       .  S
H1689      C1691   1.081       .  S
H1690      C1693   1.081       .  S
O1695     Mg1702   2.308       .  S
C1698      O1703   1.274       .  A
C1698      C1827   1.474       .  S
O1699      C1700   1.271       .  A
C1700      C1797   1.480       .  S
O1705     Mg1707   2.153       .  S
O1705     Mg2337   2.177       .  S
O1705      C1740   1.235       .  S
C1706      O1743   1.270       .  A
C1706      H1745   1.081       .  S
Mg1707     O1751   2.294       .  S
Mg1707     O1747   2.281       .  S
Mg1707     O1718   2.296       .  S
O1708     Mg1733   2.137       .  S
O1708      C2353   1.235       .  S
O1709      C2364   1.268   1_545  A
O1709     Mg1733   2.291       .  S
C1710      O1712   1.273       .  A
C1710      O1724   1.278       .  A
C1710      C1757   1.478       .  S
O1711     Mg1713   2.293       .  S
O1712     Mg1744   2.258       .  S
Mg1713     O2329   2.177       .  S
Mg1713     O1719   2.156       .  S
Mg1713     O1727   2.291       .  S
Mg1713     O1715   2.320       .  S
C1714      O1752   1.277       .  A
C1714      O2344   1.274       .  A
C1714      C1847   1.485       .  S
O1715      C1722   1.277       .  A
H1716      C1729   1.081       .  S
C1717      O1731   1.234   1_545  S
C1717      O2356   1.268   1_545  A
C1717      H1742   1.081       .  S
O1718      C1741   1.270       .  A
O1719     Mg1733   2.169       .  S
O1720      C2338   1.274   1_545  A
O1720     Mg1750   2.292       .  S
C1721      O1734   1.272       .  A
C1721      C1777   1.482       .  S
C1722      O1749   1.268       .  A
C1722      C1767   1.473       .  S
Mg1723     O1730   2.157       .  S
Mg1723     O2355   2.169       .  S
Mg1723     O1724   2.316       .  S
Mg1723     O1725   2.294       .  S
Mg1723     O1752   2.294       .  S
O1726     Mg1733   2.286       .  S
O1727      C1746   1.277   1_545  A
O1728     Mg1744   2.305       .  S
C1729      O2332   1.235       .  S
O1730     Mg1744   2.171       .  S
O1731     Mg2347   2.169       .  S
O1731     Mg1750   2.140   1_565  S
O1732      C2341   1.268       .  A
O1732     Mg1744   2.289       .  S
Mg1733     O1749   2.233       .  S
O1734     Mg1750   2.270       .  S
H1735      C1740   1.081       .  S
O1736     Mg1744   2.148       .  S
O1736      C2363   1.233       .  S
H1737      C1739   1.081       .  S
H1738      C1741   1.081       .  S
C1739      O2360   1.233       .  S
C1740      O2333   1.268       .  A
O1743     Mg1750   2.300       .  S
C1746      O2375   1.275       .  A
C1746      C1837   1.485       .  S
O1747      C1748   1.274       .  A
C1748      C1787   1.489       .  S
O1751      C2370   1.275       .  A
C1753      H1759   1.083       .  S
C1753      C1754   1.404       .  A
C1753      C1758   1.401       .  A
C1754      C1755   1.406       .  A
C1755      H1760   1.083       .  S
C1755      C1756   1.397       .  A
C1756      H1761   1.083       .  S
C1756      C1757   1.404       .  A
C1757      C1758   1.406       .  A
C1758      H1762   1.083       .  S
C1763      H1769   1.083       .  S
C1763      C1764   1.404       .  A
C1763      C1768   1.400       .  A
C1764      C1765   1.405       .  A
C1765      H1770   1.083       .  S
C1765      C1766   1.395       .  A
C1766      H1771   1.083       .  S
C1766      C1767   1.403       .  A
C1767      C1768   1.405       .  A
C1768      H1772   1.083       .  S
C1773      H1779   1.083       .  S
C1773      C1774   1.403   1_556  A
C1773      C1778   1.397       .  A
C1775      H1780   1.083       .  S
C1775      C1776   1.399       .  A
C1776      H1781   1.083       .  S
C1776      C1777   1.404       .  A
C1778      H1782   1.083       .  S
C1783      H1789   1.083       .  S
C1783      C1784   1.404       .  A
C1783      C1788   1.400       .  A
C1785      H1790   1.083       .  S
C1785      C1786   1.403       .  A
C1786      H1791   1.083       .  S
C1786      C1787   1.406       .  A
C1788      H1792   1.083       .  S
C1793      H1799   1.083       .  S
C1793      C1794   1.408       .  A
C1793      C1798   1.399       .  A
C1794      C1795   1.403       .  A
C1795      H1800   1.083       .  S
C1795      C1796   1.400       .  A
C1796      H1801   1.083       .  S
C1796      C1797   1.408       .  A
C1797      C1798   1.403       .  A
C1798      H1802   1.083       .  S
C1803      H1809   1.083       .  S
C1803      C1804   1.409       .  A
C1803      C1808   1.399       .  A
C1804      C1805   1.404       .  A
C1805      H1810   1.083       .  S
C1805      C1806   1.402       .  A
C1806      H1811   1.083       .  S
C1806      C1807   1.409       .  A
C1807      C1808   1.403       .  A
C1808      H1812   1.083       .  S
C1813      H1819   1.083       .  S
C1813      C1814   1.404       .  A
C1813      C1818   1.403       .  A
C1814      C1815   1.407       .  A
C1815      H1820   1.083       .  S
C1815      C1816   1.399       .  A
C1816      H1821   1.083       .  S
C1816      C1817   1.404       .  A
C1817      C1818   1.409       .  A
C1818      H1822   1.083       .  S
C1823      H1829   1.083       .  S
C1823      C1824   1.407       .  A
C1823      C1828   1.395       .  A
C1824      C1825   1.402       .  A
C1825      H1830   1.083       .  S
C1825      C1826   1.400       .  A
C1826      H1831   1.083       .  S
C1826      C1827   1.408       .  A
C1827      C1828   1.401       .  A
C1828      H1832   1.083       .  S
C1833      H1839   1.083       .  S
C1833      C1834   1.404       .  A
C1833      C2462   1.401       .  A
C1834      C1835   1.410       .  A
C1835      H1840   1.083       .  S
C1835      C2460   1.400       .  A
C1836      H1841   1.083       .  S
C1836      C2459   1.400       .  A
C1836      C1837   1.403   1_545  A
C1837      C1838   1.410       .  A
C1838      H1842   1.083       .  S
C1838      C2457   1.401       .  A
C1843      H1849   1.083       .  S
C1843      C2468   1.411       .  A
C1843      C1848   1.400       .  A
C1844      C2467   1.411   1_545  A
C1844      C1845   1.403       .  A
C1845      H1850   1.083       .  S
C1845      C1846   1.400       .  A
C1846      H1851   1.083       .  S
C1846      C2471   1.409       .  A
C1847      C2470   1.409       .  A
C1847      C1848   1.403       .  A
C1848      H1852   1.083       .  S
C1853      H1859   1.083       .  S
C1853      C1854   1.405   1_655  A
C1853      C1858   1.393       .  A
C1855      H1860   1.083       .  S
C1855      C1856   1.405       .  A
C1856      H1861   1.083       .  S
C1857      C1858   1.405   1_455  A
C1858      H1862   1.083       .  S
C1863      H1869   1.083       .  S
C1863      C1868   1.405       .  A
C1864      C1865   1.407       .  A
C1865      H1870   1.083       .  S
C1865      C1866   1.394       .  A
C1866      H1871   1.083       .  S
C1866      C1867   1.404       .  A
C1868      H1872   1.083       .  S
O1873     Mg1875   2.140       .  S
O1873      C1908   1.234       .  S
C1874      O1911   1.268   1_455  A
C1874      H1913   1.081   1_455  S
Mg1875     O1919   2.287       .  S
Mg1875     O1915   2.229       .  S
Mg1875     O1886   2.289       .  S
O1876     Mg1901   2.157       .  S
O1877     Mg1901   2.296       .  S
C1878      O1880   1.278       .  A
C1878      O1892   1.277       .  A
C1878      C2126   1.482       .  S
O1879     Mg1881   2.302       .  S
O1880     Mg1912   2.294       .  S
Mg1881     O1887   2.153       .  S
Mg1881     O1895   2.289       .  S
Mg1881     O1883   2.277       .  S
C1882      O1920   1.276       .  A
C1882      C2156   1.487       .  S
O1883      C1890   1.273       .  A
H1884      C1897   1.081       .  S
C1885      O1899   1.233       .  S
C1885      H1910   1.081       .  S
O1886      C1909   1.268       .  A
O1887     Mg1901   2.183       .  S
O1888     Mg1918   2.285       .  S
C1889      O1902   1.269   1_455  A
C1889      C2166   1.482       .  S
C1890      O1917   1.276       .  A
C1890      C2136   1.476       .  S
Mg1891     O1898   2.155       .  S
Mg1891     O1892   2.301       .  S
Mg1891     O1893   2.301       .  S
Mg1891     O1920   2.294       .  S
O1894     Mg1901   2.334       .  S
O1895      C1914   1.274       .  A
O1896     Mg1912   2.339       .  S
O1898     Mg1912   2.183       .  S
O1899     Mg1918   2.140       .  S
O1900     Mg1912   2.293       .  S
Mg1901     O1917   2.285       .  S
O1902     Mg1918   2.233       .  S
H1903      C1908   1.081       .  S
O1904     Mg1912   2.165       .  S
H1905      C1907   1.081       .  S
H1906      C1909   1.081       .  S
O1911     Mg1918   2.290       .  S
C1914      C2146   1.487       .  S
O1915      C1916   1.269       .  A
C1916      C2176   1.486       .  S
O1921     Mg1923   2.163       .  S
O1921      C1956   1.236       .  S
C1922      O2247   1.234       .  S
C1922      O1959   1.268       .  A
C1922      H1961   1.081       .  S
Mg1923     O2264   2.174   1_554  S
Mg1923     O1967   2.334       .  S
Mg1923     O1963   2.286       .  S
Mg1923     O1934   2.292       .  S
O1924     Mg2278   2.175   1_554  S
O1924     Mg1949   2.149       .  S
O1925     Mg1949   2.300       .  S
C1926      O1928   1.275       .  A
C1926      O1940   1.273       .  A
C1926      C2106   1.482       .  S
O1927      C2267   1.268   1_554  A
O1927     Mg1929   2.289       .  S
O1928     Mg1960   2.283       .  S
Mg1929     O1935   2.134       .  S
Mg1929     O1943   2.228       .  S
Mg1929     O1931   2.289       .  S
C1930      O1968   1.271       .  A
C1930      C2179   1.482       .  S
O1931      C1938   1.272       .  A
H1932      C1945   1.081       .  S
C1933      O1947   1.236       .  S
C1933      H1958   1.081       .  S
O1934      C1957   1.267   1_554  A
O1935     Mg1949   2.158       .  S
O1935      C2234   1.234       .  S
O1936     Mg1966   2.333       .  S
C1937      O1950   1.277       .  A
C1937      O2254   1.275       .  A
C1937      C2086   1.481       .  S
C1938      O1965   1.274       .  A
C1938      C2116   1.484       .  S
Mg1939     O1946   2.143       .  S
Mg1939     O1940   2.291       .  S
Mg1939     O1941   2.289       .  S
Mg1939     O1968   2.243       .  S
O1941      C2257   1.268       .  A
O1942      C2249   1.275       .  A
O1942     Mg1949   2.295       .  S
O1943      C1962   1.269   1_655  A
O1944      C2276   1.278       .  A
O1944     Mg1960   2.319       .  S
C1945      O2253   1.268   1_554  A
O1946     Mg1960   2.160       .  S
O1946      C2269   1.233       .  S
O1947     Mg1966   2.157       .  S
O1948     Mg1960   2.301       .  S
Mg1949     O1965   2.289       .  S
O1950     Mg1966   2.281       .  S
H1951      C1956   1.081       .  S
O1952     Mg2235   2.174       .  S
O1952     Mg1960   2.149       .  S
H1953      C1955   1.081       .  S
H1954      C1957   1.081       .  S
C1955      O2239   1.268       .  A
C1957      O2258   1.233       .  S
O1959     Mg1966   2.291       .  S
C1962      C2169   1.483       .  S
O1963      C1964   1.277   1_554  A
C1964      O2256   1.278       .  A
C1964      C2096   1.488       .  S
Mg1966     O2236   2.175       .  S
O1969     Mg1971   2.151       .  S
O1969     Mg1977   2.150       .  S
O1969      C2004   1.235       .  S
C1970      O1983   1.235       .  S
C1970      O2007   1.271       .  A
C1970      H2009   1.081       .  S
Mg1971     O2000   2.147       .  S
Mg1971     O2015   2.303       .  S
Mg1971     O2011   2.258       .  S
Mg1971     O1982   2.301       .  S
O1972     Mg2014   2.146       .  S
O1972     Mg1997   2.159       .  S
O1972      C1993   1.237       .  S
O1973      C2004   1.271       .  A
O1973     Mg1997   2.307       .  S
C1974      O1976   1.273       .  A
C1974      O1988   1.271       .  A
C1974      C2076   1.475       .  S
O1975      C2003   1.270       .  A
O1975     Mg1977   2.301       .  S
O1976     Mg2008   2.282       .  S
Mg1977     O1983   2.154       .  S
Mg1977     O1991   2.251       .  S
Mg1977     O1979   2.275       .  S
C1978      O2016   1.269       .  A
C1978      O1984   1.275       .  A
C1978      C2129   1.484       .  S
O1979      C1986   1.270       .  A
H1980      C1993   1.081       .  S
C1981      O1995   1.237       .  S
C1981      O1996   1.272       .  A
C1981      H2006   1.081       .  S
O1982      C2005   1.269       .  A
O1983     Mg1997   2.154       .  S
O1984     Mg2014   2.316       .  S
C1985      O1998   1.271       .  A
C1985      O1990   1.278       .  A
C1985      C2119   1.483       .  S
C1986      O2013   1.274       .  A
C1986      C2066   1.478       .  S
Mg1987     O1994   2.150       .  S
Mg1987     O1995   2.145       .  S
Mg1987     O1988   2.274       .  S
Mg1987     O1989   2.309       .  S
Mg1987     O2016   2.268       .  S
O1989      C1993   1.272       .  A
O1990     Mg1997   2.329       .  S
O1991      C2010   1.268       .  A
O1992      C2012   1.279       .  A
O1992     Mg2008   2.330       .  S
O1994     Mg2008   2.152       .  S
O1994      C2005   1.235       .  S
O1995     Mg2014   2.154       .  S
O1996     Mg2008   2.311       .  S
Mg1997     O2013   2.293       .  S
O1998     Mg2014   2.258       .  S
H1999      C2004   1.081       .  S
O2000     Mg2008   2.144       .  S
O2000      C2003   1.236       .  S
H2001      C2003   1.081       .  S
H2002      C2005   1.081       .  S
O2007     Mg2014   2.308       .  S
C2010      O2015   1.274       .  A
C2010      C2139   1.474       .  S
O2011      C2012   1.271       .  A
C2012      C2109   1.480       .  S
O2017     Mg2019   2.153   1_545  S
O2017      C2052   1.235   1_545  S
C2018      O2343   1.236   1_554  S
C2018      O2055   1.270       .  A
C2018      H2057   1.081       .  S
Mg2019     O2360   2.159       .  S
Mg2019     O2063   2.294       .  S
Mg2019     O2059   2.281       .  S
Mg2019     O2030   2.296       .  S
O2020     Mg2374   2.155       .  S
O2020     Mg2045   2.137       .  S
O2021     Mg2045   2.291       .  S
C2022      O2024   1.273       .  A
C2022      O2036   1.278       .  A
C2022      C2069   1.478       .  S
O2023      C2363   1.268       .  A
O2023     Mg2025   2.293       .  S
O2024     Mg2056   2.258       .  S
Mg2025     O2031   2.156       .  S
Mg2025     O2039   2.291       .  S
Mg2025     O2027   2.320       .  S
C2026      O2064   1.277       .  A
C2026      C2159   1.485   1_565  S
O2027      C2034   1.277       .  A
H2028      C2041   1.081       .  S
C2029      O2043   1.234       .  S
C2029      H2054   1.081       .  S
O2030      C2053   1.270       .  A
O2031     Mg2045   2.169       .  S
O2031      C2330   1.236       .  S
O2032     Mg2062   2.292       .  S
C2033      O2046   1.272       .  A
C2033      O2350   1.272   1_554  A
C2033      C2089   1.482       .  S
C2034      O2061   1.268       .  A
C2034      C2079   1.473       .  S
Mg2035     O2042   2.157       .  S
Mg2035     O2036   2.316       .  S
Mg2035     O2037   2.294       .  S
Mg2035     O2064   2.294       .  S
O2037      C2353   1.268   1_564  A
O2038      C2345   1.272       .  A
O2038     Mg2045   2.286       .  S
O2039      C2058   1.277       .  A
O2040      C2372   1.276   1_554  A
O2040     Mg2056   2.305       .  S
C2041      O2349   1.268   1_545  A
O2042     Mg2056   2.171       .  S
O2042      C2365   1.236   1_554  S
O2043     Mg2062   2.140       .  S
O2044     Mg2056   2.289       .  S
Mg2045     O2061   2.233       .  S
O2046     Mg2062   2.270       .  S
H2047      C2052   1.081       .  S
O2048     Mg2331   2.159   1_554  S
O2048     Mg2056   2.148       .  S
H2049      C2051   1.081       .  S
H2050      C2053   1.081       .  S
C2051      O2335   1.268   1_554  A
C2053      O2354   1.236       .  S
O2055     Mg2062   2.300       .  S
C2058      C2149   1.485       .  S
O2059      C2060   1.274       .  A
C2060      O2352   1.276       .  A
C2060      C2099   1.489       .  S
Mg2062     O2332   2.155   1_554  S
C2065      H2071   1.083       .  S
C2065      C2066   1.404       .  A
C2065      C2070   1.401       .  A
C2066      C2067   1.406       .  A
C2067      H2072   1.083       .  S
C2067      C2068   1.397       .  A
C2068      H2073   1.083       .  S
C2068      C2069   1.404       .  A
C2069      C2070   1.406       .  A
C2070      H2074   1.083       .  S
C2075      H2081   1.083       .  S
C2075      C2076   1.404       .  A
C2075      C2080   1.400       .  A
C2076      C2077   1.405       .  A
C2077      H2082   1.083       .  S
C2077      C2078   1.395       .  A
C2078      H2083   1.083       .  S
C2078      C2079   1.403       .  A
C2079      C2080   1.405       .  A
C2080      H2084   1.083       .  S
C2085      H2091   1.083       .  S
C2085      C2086   1.403       .  A
C2085      C2090   1.397       .  A
C2086      C2399   1.408       .  A
C2087      H2092   1.083       .  S
C2087      C2398   1.408       .  A
C2087      C2088   1.399       .  A
C2088      H2093   1.083       .  S
C2088      C2089   1.404       .  A
C2089      C2402   1.408   1_554  A
C2090      H2094   1.083       .  S
C2090      C2401   1.408       .  A
C2095      H2101   1.083       .  S
C2095      C2096   1.404   1_554  A
C2095      C2100   1.400       .  A
C2096      C2409   1.408       .  A
C2097      H2102   1.083       .  S
C2097      C2408   1.408       .  A
C2097      C2098   1.403       .  A
C2098      H2103   1.083       .  S
C2098      C2099   1.406       .  A
C2099      C2412   1.408       .  A
C2100      H2104   1.083       .  S
C2100      C2411   1.408   1_554  A
C2105      H2111   1.083       .  S
C2105      C2106   1.408       .  A
C2105      C2110   1.399       .  A
C2106      C2107   1.403       .  A
C2107      H2112   1.083       .  S
C2107      C2108   1.400       .  A
C2108      H2113   1.083       .  S
C2108      C2109   1.408       .  A
C2109      C2110   1.403       .  A
C2110      H2114   1.083       .  S
C2115      H2121   1.083       .  S
C2115      C2116   1.409       .  A
C2115      C2120   1.399       .  A
C2116      C2117   1.404       .  A
C2117      H2122   1.083       .  S
C2117      C2118   1.402       .  A
C2118      H2123   1.083       .  S
C2118      C2119   1.409       .  A
C2119      C2120   1.403       .  A
C2120      H2124   1.083       .  S
C2125      H2131   1.083       .  S
C2125      C2126   1.404       .  A
C2125      C2130   1.403       .  A
C2126      C2127   1.407       .  A
C2127      H2132   1.083       .  S
C2127      C2128   1.399       .  A
C2128      H2133   1.083       .  S
C2128      C2129   1.404       .  A
C2129      C2130   1.409       .  A
C2130      H2134   1.083       .  S
C2135      H2141   1.083       .  S
C2135      C2136   1.407       .  A
C2135      C2140   1.395       .  A
C2136      C2137   1.402       .  A
C2137      H2142   1.083       .  S
C2137      C2138   1.400       .  A
C2138      H2143   1.083       .  S
C2138      C2139   1.408       .  A
C2139      C2140   1.401       .  A
C2140      H2144   1.083       .  S
C2145      H2151   1.083       .  S
C2145      C2146   1.404       .  A
C2146      C2147   1.410   1_565  A
C2147      H2152   1.083       .  S
C2148      H2153   1.083       .  S
C2148      C2149   1.403       .  A
C2149      C2150   1.410       .  A
C2150      H2154   1.083       .  S
C2155      H2161   1.083       .  S
C2155      C2160   1.400       .  A
C2156      C2157   1.403       .  A
C2157      H2162   1.083       .  S
C2157      C2158   1.400       .  A
C2158      H2163   1.083       .  S
C2159      C2160   1.403   1_545  A
C2160      H2164   1.083       .  S
C2165      H2171   1.083       .  S
C2165      C2166   1.405   1_655  A
C2165      C2170   1.393       .  A
C2167      H2172   1.083       .  S
C2167      C2168   1.405       .  A
C2168      H2173   1.083       .  S
C2169      C2170   1.405   1_455  A
C2170      H2174   1.083       .  S
C2175      H2181   1.083       .  S
C2175      C2180   1.405       .  A
C2176      C2177   1.407       .  A
C2177      H2182   1.083       .  S
C2177      C2178   1.394       .  A
C2178      H2183   1.083       .  S
C2178      C2179   1.404       .  A
C2180      H2184   1.083       .  S
O2185     Mg2187   2.140       .  S
O2185      C2220   1.234       .  S
C2186      O2223   1.268   1_455  A
C2186      H2225   1.081   1_455  S
Mg2187     O2231   2.287       .  S
Mg2187     O2227   2.229       .  S
Mg2187     O2198   2.289       .  S
O2188     Mg2213   2.157       .  S
O2189     Mg2213   2.296       .  S
C2190      O2192   1.278       .  A
C2190      O2204   1.277       .  A
C2190      C2438   1.482       .  S
O2191     Mg2193   2.302       .  S
O2192     Mg2224   2.294       .  S
Mg2193     O2199   2.153       .  S
Mg2193     O2207   2.289       .  S
Mg2193     O2195   2.277       .  S
C2194      O2232   1.276       .  A
C2194      C2468   1.487       .  S
O2195      C2202   1.273       .  A
H2196      C2209   1.081       .  S
C2197      O2211   1.233       .  S
C2197      H2222   1.081       .  S
O2198      C2221   1.268       .  A
O2199     Mg2213   2.183       .  S
O2200     Mg2230   2.285       .  S
C2201      O2214   1.269   1_455  A
C2201      C2478   1.482       .  S
C2202      O2229   1.276       .  A
C2202      C2448   1.476       .  S
Mg2203     O2210   2.155       .  S
Mg2203     O2204   2.301       .  S
Mg2203     O2205   2.301       .  S
Mg2203     O2232   2.294       .  S
O2206     Mg2213   2.334       .  S
O2207      C2226   1.274       .  A
O2208     Mg2224   2.339       .  S
O2210     Mg2224   2.183       .  S
O2211     Mg2230   2.140       .  S
O2212     Mg2224   2.293       .  S
Mg2213     O2229   2.285       .  S
O2214     Mg2230   2.233       .  S
H2215      C2220   1.081       .  S
O2216     Mg2224   2.165       .  S
H2217      C2219   1.081       .  S
H2218      C2221   1.081       .  S
O2223     Mg2230   2.290       .  S
C2226      C2458   1.487       .  S
O2227      C2228   1.269       .  A
C2228      C2488   1.486       .  S
O2233     Mg2235   2.163       .  S
O2233      C2268   1.236       .  S
C2234      O2271   1.268   1_554  A
C2234      H2273   1.081       .  S
Mg2235     O2279   2.334       .  S
Mg2235     O2275   2.286       .  S
Mg2235     O2246   2.292       .  S
O2236     Mg2261   2.149       .  S
O2237     Mg2261   2.300       .  S
C2238      O2240   1.275       .  A
C2238      O2252   1.273       .  A
C2238      C2418   1.482       .  S
O2239     Mg2241   2.289       .  S
O2240     Mg2272   2.283       .  S
Mg2241     O2247   2.134       .  S
Mg2241     O2255   2.228       .  S
Mg2241     O2243   2.289       .  S
C2242      O2280   1.271       .  A
C2242      C2491   1.482       .  S
O2243      C2250   1.272       .  A
H2244      C2257   1.081       .  S
C2245      O2259   1.236       .  S
C2245      H2270   1.081       .  S
O2246      C2269   1.267       .  A
O2247     Mg2261   2.158       .  S
O2248     Mg2278   2.333       .  S
C2249      O2262   1.277   1_554  A
C2249      C2398   1.481       .  S
C2250      O2277   1.274       .  A
C2250      C2428   1.484       .  S
Mg2251     O2258   2.143       .  S
Mg2251     O2252   2.291       .  S
Mg2251     O2253   2.289       .  S
Mg2251     O2280   2.243       .  S
O2254     Mg2261   2.295       .  S
O2255      C2274   1.269   1_655  A
O2256     Mg2272   2.319       .  S
O2258     Mg2272   2.160       .  S
O2259     Mg2278   2.157       .  S
O2260     Mg2272   2.301       .  S
Mg2261     O2277   2.289       .  S
O2262     Mg2278   2.281       .  S
H2263      C2268   1.081       .  S
O2264     Mg2272   2.149       .  S
H2265      C2267   1.081       .  S
H2266      C2269   1.081       .  S
O2271     Mg2278   2.291       .  S
C2274      C2481   1.483       .  S
O2275      C2276   1.277       .  A
C2276      C2408   1.488       .  S
O2281     Mg2283   2.151       .  S
O2281     Mg2289   2.150       .  S
O2281      C2316   1.235       .  S
C2282      O2295   1.235       .  S
C2282      O2319   1.271       .  A
C2282      H2321   1.081       .  S
Mg2283     O2312   2.147       .  S
Mg2283     O2327   2.303       .  S
Mg2283     O2323   2.258       .  S
Mg2283     O2294   2.301       .  S
O2284     Mg2326   2.146       .  S
O2284     Mg2309   2.159       .  S
O2284      C2305   1.237       .  S
O2285      C2316   1.271       .  A
O2285     Mg2309   2.307       .  S
C2286      O2288   1.273       .  A
C2286      O2300   1.271       .  A
C2286      C2388   1.475       .  S
O2287      C2315   1.270       .  A
O2287     Mg2289   2.301       .  S
O2288     Mg2320   2.282       .  S
Mg2289     O2295   2.154       .  S
Mg2289     O2303   2.251       .  S
Mg2289     O2291   2.275       .  S
C2290      O2328   1.269       .  A
C2290      O2296   1.275       .  A
C2290      C2441   1.484       .  S
O2291      C2298   1.270       .  A
H2292      C2305   1.081       .  S
C2293      O2307   1.237       .  S
C2293      O2308   1.272       .  A
C2293      H2318   1.081       .  S
O2294      C2317   1.269       .  A
O2295     Mg2309   2.154       .  S
O2296     Mg2326   2.316       .  S
C2297      O2310   1.271       .  A
C2297      O2302   1.278       .  A
C2297      C2431   1.483       .  S
C2298      O2325   1.274       .  A
C2298      C2378   1.478       .  S
Mg2299     O2306   2.150       .  S
Mg2299     O2307   2.145       .  S
Mg2299     O2300   2.274       .  S
Mg2299     O2301   2.309       .  S
Mg2299     O2328   2.268       .  S
O2301      C2305   1.272       .  A
O2302     Mg2309   2.329       .  S
O2303      C2322   1.268       .  A
O2304      C2324   1.279       .  A
O2304     Mg2320   2.330       .  S
O2306     Mg2320   2.152       .  S
O2306      C2317   1.235       .  S
O2307     Mg2326   2.154       .  S
O2308     Mg2320   2.311       .  S
Mg2309     O2325   2.293       .  S
O2310     Mg2326   2.258       .  S
H2311      C2316   1.081       .  S
O2312     Mg2320   2.144       .  S
O2312      C2315   1.236       .  S
H2313      C2315   1.081       .  S
H2314      C2317   1.081       .  S
O2319     Mg2326   2.308       .  S
C2322      O2327   1.274       .  A
C2322      C2451   1.474       .  S
O2323      C2324   1.271       .  A
C2324      C2421   1.480       .  S
O2329     Mg2331   2.153   1_545  S
O2329      C2364   1.235   1_545  S
C2330      O2367   1.270       .  A
C2330      H2369   1.081       .  S
Mg2331     O2375   2.294       .  S
Mg2331     O2371   2.281       .  S
Mg2331     O2342   2.296       .  S
O2332     Mg2357   2.137       .  S
O2333     Mg2357   2.291       .  S
C2334      O2336   1.273       .  A
C2334      O2348   1.278       .  A
C2334      C2381   1.478       .  S
O2335     Mg2337   2.293       .  S
O2336     Mg2368   2.258       .  S
Mg2337     O2343   2.156       .  S
Mg2337     O2351   2.291       .  S
Mg2337     O2339   2.320       .  S
C2338      O2376   1.277       .  A
C2338      C2471   1.485   1_565  S
O2339      C2346   1.277       .  A
H2340      C2353   1.081       .  S
C2341      O2355   1.234       .  S
C2341      H2366   1.081       .  S
O2342      C2365   1.270       .  A
O2343     Mg2357   2.169       .  S
O2344     Mg2374   2.292       .  S
C2345      O2358   1.272       .  A
C2345      C2401   1.482       .  S
C2346      O2373   1.268       .  A
C2346      C2391   1.473       .  S
Mg2347     O2354   2.157       .  S
Mg2347     O2348   2.316       .  S
Mg2347     O2349   2.294       .  S
Mg2347     O2376   2.294       .  S
O2350     Mg2357   2.286       .  S
O2351      C2370   1.277       .  A
O2352     Mg2368   2.305       .  S
O2354     Mg2368   2.171       .  S
O2355     Mg2374   2.140       .  S
O2356     Mg2368   2.289       .  S
Mg2357     O2373   2.233       .  S
O2358     Mg2374   2.270       .  S
H2359      C2364   1.081       .  S
O2360     Mg2368   2.148       .  S
H2361      C2363   1.081       .  S
H2362      C2365   1.081       .  S
O2367     Mg2374   2.300       .  S
C2370      C2461   1.485       .  S
O2371      C2372   1.274       .  A
C2372      C2411   1.489       .  S
C2377      H2383   1.083       .  S
C2377      C2378   1.404       .  A
C2377      C2382   1.401       .  A
C2378      C2379   1.406       .  A
C2379      H2384   1.083       .  S
C2379      C2380   1.397       .  A
C2380      H2385   1.083       .  S
C2380      C2381   1.404       .  A
C2381      C2382   1.406       .  A
C2382      H2386   1.083       .  S
C2387      H2393   1.083       .  S
C2387      C2388   1.404       .  A
C2387      C2392   1.400       .  A
C2388      C2389   1.405       .  A
C2389      H2394   1.083       .  S
C2389      C2390   1.395       .  A
C2390      H2395   1.083       .  S
C2390      C2391   1.403       .  A
C2391      C2392   1.405       .  A
C2392      H2396   1.083       .  S
C2397      H2403   1.083       .  S
C2397      C2398   1.403   1_556  A
C2397      C2402   1.397       .  A
C2399      H2404   1.083       .  S
C2399      C2400   1.399       .  A
C2400      H2405   1.083       .  S
C2400      C2401   1.404       .  A
C2402      H2406   1.083       .  S
C2407      H2413   1.083       .  S
C2407      C2408   1.404       .  A
C2407      C2412   1.400       .  A
C2409      H2414   1.083       .  S
C2409      C2410   1.403       .  A
C2410      H2415   1.083       .  S
C2410      C2411   1.406       .  A
C2412      H2416   1.083       .  S
C2417      H2423   1.083       .  S
C2417      C2418   1.408       .  A
C2417      C2422   1.399       .  A
C2418      C2419   1.403       .  A
C2419      H2424   1.083       .  S
C2419      C2420   1.400       .  A
C2420      H2425   1.083       .  S
C2420      C2421   1.408       .  A
C2421      C2422   1.403       .  A
C2422      H2426   1.083       .  S
C2427      H2433   1.083       .  S
C2427      C2428   1.409       .  A
C2427      C2432   1.399       .  A
C2428      C2429   1.404       .  A
C2429      H2434   1.083       .  S
C2429      C2430   1.402       .  A
C2430      H2435   1.083       .  S
C2430      C2431   1.409       .  A
C2431      C2432   1.403       .  A
C2432      H2436   1.083       .  S
C2437      H2443   1.083       .  S
C2437      C2438   1.404       .  A
C2437      C2442   1.403       .  A
C2438      C2439   1.407       .  A
C2439      H2444   1.083       .  S
C2439      C2440   1.399       .  A
C2440      H2445   1.083       .  S
C2440      C2441   1.404       .  A
C2441      C2442   1.409       .  A
C2442      H2446   1.083       .  S
C2447      H2453   1.083       .  S
C2447      C2448   1.407       .  A
C2447      C2452   1.395       .  A
C2448      C2449   1.402       .  A
C2449      H2454   1.083       .  S
C2449      C2450   1.400       .  A
C2450      H2455   1.083       .  S
C2450      C2451   1.408       .  A
C2451      C2452   1.401       .  A
C2452      H2456   1.083       .  S
C2457      H2463   1.083       .  S
C2457      C2458   1.404       .  A
C2458      C2459   1.410   1_565  A
C2459      H2464   1.083       .  S
C2460      H2465   1.083       .  S
C2460      C2461   1.403       .  A
C2461      C2462   1.410       .  A
C2462      H2466   1.083       .  S
C2467      H2473   1.083       .  S
C2467      C2472   1.400       .  A
C2468      C2469   1.403       .  A
C2469      H2474   1.083       .  S
C2469      C2470   1.400       .  A
C2470      H2475   1.083       .  S
C2471      C2472   1.403   1_545  A
C2472      H2476   1.083       .  S
C2477      H2483   1.083       .  S
C2477      C2478   1.405   1_655  A
C2477      C2482   1.393       .  A
C2479      H2484   1.083       .  S
C2479      C2480   1.405       .  A
C2480      H2485   1.083       .  S
C2481      C2482   1.405   1_455  A
C2482      H2486   1.083       .  S
C2487      H2493   1.083       .  S
C2487      C2492   1.405       .  A
C2488      C2489   1.407       .  A
C2489      H2494   1.083       .  S
C2489      C2490   1.394       .  A
C2490      H2495   1.083       .  S
C2490      C2491   1.404       .  A
C2492      H2496   1.083       .  S
