geometry optimzed in LAMMPS
_audit_creation_date              2020-11-30 
_audit_creation_method            'lammps2cif' 
_symmetry_space_group_name_H-M    'P1' 
_symmetry_Int_Tables_number       1 
_symmetry_cell_setting            triclinic 
loop_ 
_symmetry_equiv_pos_as_xyz 
  x,y,z 
_cell_length_a                    48.88171365 
_cell_length_b                    48.79842228516349 
_cell_length_c                    44.59375999123992 
_cell_angle_alpha                 89.97494409890211 
_cell_angle_beta                  90.16333540495846 
_cell_angle_gamma                 89.96217257028584 
loop_ 
_atom_site_label 
_atom_site_type_symbol 
_atom_site_fract_x 
_atom_site_fract_y 
_atom_site_fract_z 
_atom_site_charge 
C1          C  0.68111977  0.68119823  0.24564399     0.80800
N2          N  0.69107281  0.69045244  0.21913980    -0.77600
C3          C  0.71067855  0.71015270  0.21858311     0.83200
N4          N  0.72029439  0.72046515  0.24493129    -0.77500
C5          C  0.71046155  0.71128192  0.27163668     0.83300
N6          N  0.69083369  0.69157420  0.27181838    -0.79200
C7          C  0.81506813  0.81335926  0.99597541     0.80800
N8          N  0.80462521  0.80323065  0.02191679    -0.77600
C9          C  0.78556424  0.78296222  0.02152059     0.83200
N10         N  0.77680087  0.77308525  0.99467527    -0.77500
C11         C  0.78678049  0.78320720  0.46850834     0.83300
N12         N  0.80604315  0.80328332  0.46931467    -0.79200
C13         C  0.66794476  0.29693538  0.24829670     0.80800
N14         N  0.67675616  0.28544733  0.27433512    -0.77600
C15         C  0.69434145  0.26389539  0.27440940     0.83200
N16         N  0.70310601  0.25370721  0.24774614    -0.77500
C17         C  0.69467503  0.26510365  0.22153232     0.83300
N18         N  0.67718336  0.28671803  0.22184076    -0.79200
C19         C  0.80383166  0.16917623  0.49841062     0.80800
N20         N  0.79229902  0.17693550  0.47194249    -0.77600
C21         C  0.76935015  0.19262430  0.47172047     0.83200
N22         N  0.75789392  0.20051818  0.49796702    -0.77500
C23         C  0.76926285  0.19328639  0.02463527     0.83300
N24         N  0.79235450  0.17764437  0.02459784    -0.79200
C25         C  0.31703255  0.67944622  0.25037483     0.80800
N26         N  0.30756015  0.69035044  0.27643657    -0.77600
C27         C  0.28742781  0.70953675  0.27628397     0.83200
N28         N  0.27667446  0.71816834  0.24981972    -0.77500
C29         C  0.28599624  0.70762778  0.22358227     0.83300
N30         N  0.30606195  0.68827941  0.22395717    -0.79200
C31         C  0.18084322  0.81000210  0.49964217     0.80800
N32         N  0.19215055  0.80147084  0.47343717    -0.77600
C33         C  0.21212776  0.78204012  0.47318469     0.83200
N34         N  0.22098864  0.77142998  0.49972224    -0.77500
C35         C  0.21012848  0.77991118  0.02620529     0.83300
N36         N  0.18991850  0.79910090  0.02591786    -0.79200
O37         O  0.96970581  0.97072292  0.47613492    -0.71200
O38         O  0.02714094  0.02323222  0.47510109    -0.71500
O39         O  0.02467644  0.96801065  0.47525022    -0.71300
O40         O  0.97202359  0.02581664  0.47604643    -0.71300
O41         O  0.97149464  0.02436020  0.02465265    -0.71300
O42         O  0.02691902  0.96962446  0.02380702    -0.71300
O43         O  0.02638669  0.02488266  0.02345727    -0.71300
O44         O  0.97198658  0.96924879  0.02475031    -0.71400
V45         V  0.99841651  0.99696324  0.47653956     1.35200
V46         V  0.99920654  0.99703575  0.02322427     1.35200
C47         C  0.96132737  0.96073806  0.00061572     0.78000
C48         C  0.03641464  0.03353947  0.99909795     0.78000
C49         C  0.03492527  0.95904139  0.49946388     0.77900
C50         C  0.96239149  0.03462826  0.50056303     0.77900
O51         O  0.52751289  0.46738357  0.27764503    -0.71200
O52         O  0.47456953  0.52428900  0.27715129    -0.71500
O53         O  0.47284122  0.46933882  0.27973783    -0.71300
O54         O  0.52917895  0.52258952  0.27492345    -0.71300
O55         O  0.52727132  0.52108462  0.22648107    -0.71300
O56         O  0.47186057  0.46686181  0.23107456    -0.71300
O57         O  0.47223027  0.52183811  0.22854718    -0.71300
O58         O  0.52644633  0.46615900  0.22895208    -0.71400
V59         V  0.50104177  0.49587737  0.27642164     1.35200
V60         V  0.49947758  0.49408054  0.22970039     1.35200
C61         C  0.53574644  0.45686967  0.25338512     0.78000
C62         C  0.46423173  0.53256957  0.25278876     0.78000
C63         C  0.46306956  0.45875922  0.25617745     0.77900
C64         C  0.53780819  0.53119808  0.24992222     0.77900
C65         C  0.18610191  0.17830436  0.50230969     0.80800
N66         N  0.19600811  0.18846711  0.47617820    -0.77600
C67         C  0.21555675  0.20819865  0.47645739     0.83200
N68         N  0.22520298  0.21776571  0.50300846    -0.77500
C69         C  0.21536942  0.20784012  0.02930943     0.83300
N70         N  0.19569411  0.18809885  0.02889995    -0.79200
C71         C  0.31634939  0.31285989  0.25372979     0.80800
N72         N  0.30661453  0.30332055  0.22714462    -0.77600
C73         C  0.28633163  0.28427188  0.22645238     0.83200
N74         N  0.27570701  0.27499643  0.25271517    -0.77500
C75         C  0.28529538  0.28428007  0.27949934     0.83300
N76         N  0.30569587  0.30311196  0.27966711    -0.79200
C77         C  0.21678420  0.24450499  0.40107991    -0.04900
C78         C  0.24466703  0.24231563  0.39342405     0.09200
C79         C  0.26313567  0.22943828  0.41330225    -0.02300
C80         C  0.25367481  0.21839140  0.44058916    -0.00600
C81         C  0.22562759  0.21996321  0.44794642    -0.04200
C82         C  0.20722359  0.23317973  0.42817526     0.02800
C83         C  0.25455806  0.25325845  0.36410741     0.09700
C84         C  0.29187680  0.22758956  0.40556019     0.35600
C85         C  0.17856876  0.23579131  0.43609482     0.39000
C86         C  0.26303763  0.28071588  0.36172953    -0.04600
C87         C  0.27244805  0.29106056  0.33407637     0.02600
C88         C  0.27401848  0.27370905  0.30849946    -0.04200
C89         C  0.26537088  0.24602225  0.31120110    -0.00400
C90         C  0.25548694  0.23603272  0.33881376    -0.02900
C91         C  0.26211152  0.29830016  0.38795531     0.36300
C92         C  0.26744266  0.22724605  0.28608140     0.39900
C93         C  0.27984049  0.31981689  0.33216712     0.39100
C94         C  0.24640907  0.20781914  0.34140523     0.36000
C95         C  0.19804707  0.25870069  0.38113781     0.36700
C96         C  0.27268818  0.20479464  0.46073095     0.39900
N97         N  0.28579763  0.34273799  0.33081556    -0.38200
N98         N  0.26139773  0.31225059  0.40891941    -0.39700
N99         N  0.26901378  0.21219180  0.26610712    -0.37500
N100        N  0.23912256  0.18534812  0.34356068    -0.39900
N101        N  0.31479623  0.22617664  0.39931144    -0.39700
N102        N  0.28783363  0.19395332  0.47682846    -0.37300
N103        N  0.15572948  0.23784766  0.44248846    -0.38300
N104        N  0.18319071  0.27018851  0.36525968    -0.40000
C105        C  0.24655842  0.21233559  0.10769396    -0.04900
C106        C  0.24661607  0.24091114  0.11254395     0.09200
C107        C  0.23641133  0.25859824  0.09012568    -0.02300
C108        C  0.22597522  0.24777947  0.06307467    -0.00600
C109        C  0.22576668  0.21911091  0.05817959    -0.04200
C110        C  0.23619401  0.20144459  0.08061877     0.02800
C111        C  0.25687537  0.25235205  0.14164960     0.09700
C112        C  0.23665770  0.28798899  0.09499156     0.35600
C113        C  0.23713418  0.17210794  0.07550467     0.39000
C114        C  0.28514854  0.25607268  0.14645799    -0.04600
C115        C  0.29481619  0.26611809  0.17422167     0.02600
C116        C  0.27615015  0.27331663  0.19720360    -0.04200
C117        C  0.24773653  0.26972263  0.19211772    -0.00400
C118        C  0.23823500  0.25908775  0.16456287    -0.02900
C119        C  0.30429984  0.24946256  0.12274037     0.36300
C120        C  0.22805444  0.27748626  0.21488205     0.39900
C121        C  0.32408382  0.26776418  0.17946820     0.39100
C122        C  0.20917292  0.25492204  0.15969932     0.36000
C123        C  0.25726832  0.19418378  0.13066568     0.36700
C124        C  0.21474337  0.26619945  0.04063258     0.39900
N125        N  0.34742523  0.26893828  0.18370863    -0.38200
N126        N  0.31956071  0.24423505  0.10378904    -0.39700
N127        N  0.21231138  0.28360565  0.23302708    -0.37500
N128        N  0.18601869  0.25153763  0.15570610    -0.39900
N129        N  0.23685631  0.31143004  0.09891072    -0.39700
N130        N  0.20577833  0.28084952  0.02270125    -0.37300
N131        N  0.23793503  0.14870496  0.07140071    -0.38300
N132        N  0.26590834  0.17981692  0.14905081    -0.40000
C133        C  0.42595457  0.39150592  0.24314409    -0.04900
C134        C  0.40144199  0.39591176  0.25902987     0.09200
C135        C  0.39753711  0.42059002  0.27494191    -0.02300
C136        C  0.41780219  0.44113819  0.27430436    -0.00600
C137        C  0.44209337  0.43698024  0.25781934    -0.04200
C138        C  0.44627681  0.41193714  0.24259479     0.02800
C139        C  0.37936637  0.37478839  0.25809178     0.09700
C140        C  0.37252815  0.42485471  0.29172981     0.35600
C141        C  0.47179976  0.40687912  0.22696982     0.39000
C142        C  0.38067481  0.35171653  0.27704001    -0.04600
C143        C  0.36041425  0.33122854  0.27522826     0.02600
C144        C  0.33836117  0.33393042  0.25471049    -0.04200
C145        C  0.33708930  0.35726978  0.23585717    -0.00400
C146        C  0.35762313  0.37750150  0.23747166    -0.02900
C147        C  0.40300431  0.34909174  0.29836100     0.36300
C148        C  0.31426411  0.36107130  0.21540317     0.39900
C149        C  0.36289823  0.30696088  0.29387231     0.39100
C150        C  0.35649386  0.40122558  0.21786954     0.36000
C151        C  0.43011309  0.36594605  0.22718516     0.36700
C152        C  0.41319073  0.46694699  0.28964073     0.39900
N153        N  0.36489188  0.28760302  0.30872719    -0.38200
N154        N  0.42082421  0.34703496  0.31535731    -0.39700
N155        N  0.29608853  0.36416547  0.19905644    -0.37500
N156        N  0.35570956  0.42020285  0.20231822    -0.39900
N157        N  0.35256134  0.42822666  0.30511711    -0.39700
N158        N  0.40955195  0.48758266  0.30178324    -0.37300
N159        N  0.49218925  0.40283773  0.21459795    -0.38300
N160        N  0.43337201  0.34550584  0.21453841    -0.40000
C161        C  0.11632688  0.14415124  0.00657720    -0.04900
C162        C  0.12270203  0.11701381  0.99811566     0.09200
C163        C  0.14994335  0.11006836  0.49092831    -0.02300
C164        C  0.17073709  0.13009441  0.49249101    -0.00600
C165        C  0.16443362  0.15709066  0.00153440    -0.04200
C166        C  0.13716373  0.16408931  0.00849159     0.02800
C167        C  0.10082426  0.09548788  0.99807557     0.09700
C168        C  0.15652644  0.08225037  0.48208520     0.35600
C169        C  0.13049070  0.19196641  0.01705925     0.39000
C170        C  0.08702573  0.08857939  0.47139591    -0.04600
C171        C  0.06596109  0.06871427  0.47159077     0.02600
C172        C  0.05854527  0.05515985  0.99873726    -0.04200
C173        C  0.07264327  0.06256728  0.02558282    -0.00400
C174        C  0.09362441  0.08244656  0.02505655    -0.02900
C175        C  0.09452830  0.10215319  0.44363981     0.36300
C176        C  0.06594929  0.05004890  0.05415699     0.39900
C177        C  0.05175390  0.06306840  0.44365145     0.39100
C178        C  0.10808819  0.08955541  0.05245711     0.36000
C179        C  0.08821508  0.15152700  0.01304975     0.36700
C180        C  0.19874112  0.12284879  0.48529026     0.39900
N181        N  0.04055676  0.05874936  0.42123887    -0.38200
N182        N  0.10056805  0.11293643  0.42150969    -0.39700
N183        N  0.06067398  0.04034308  0.07711143    -0.37500
N184        N  0.11968585  0.09528824  0.07422345    -0.39900
N185        N  0.16171873  0.06004495  0.47498317    -0.39700
N186        N  0.22111169  0.11713758  0.47958780    -0.37300
N187        N  0.12522687  0.21422943  0.02387702    -0.38300
N188        N  0.06573640  0.15733314  0.01808764    -0.40000
C189        C  0.07208867  0.89187513  0.48135632    -0.04900
C190        C  0.09505739  0.89344899  0.50052652     0.09200
C191        C  0.09817838  0.91641268  0.01944058    -0.02300
C192        C  0.07887212  0.93797873  0.01871597    -0.00600
C193        C  0.05576774  0.93653821  0.49951252    -0.04200
C194        C  0.05248447  0.91323020  0.48087915     0.02800
C195        C  0.11674208  0.87157616  0.99984746     0.09700
C196        C  0.12142414  0.91780225  0.03967783     0.35600
C197        C  0.02861122  0.91078137  0.46167147     0.39000
C198        C  0.14087367  0.87575072  0.98315351    -0.04600
C199        C  0.16178405  0.85574228  0.98308365     0.02600
C200        C  0.15867575  0.83112480  0.49955235    -0.04200
C201        C  0.13425392  0.82681008  0.51591996    -0.00400
C202        C  0.11347697  0.84700370  0.51616274    -0.02900
C203        C  0.14415880  0.90083644  0.96607738     0.36300
C204        C  0.13004642  0.80119665  0.53177948     0.39900
C205        C  0.18689292  0.86103385  0.96681732     0.39100
C206        C  0.08869584  0.84255841  0.53327786     0.36000
C207        C  0.06871096  0.86818636  0.46207184     0.36700
C208        C  0.08359802  0.96222601  0.03680734     0.39900
N209        N  0.20692323  0.86529542  0.95385418    -0.38200
N210        N  0.14666387  0.92089199  0.95250672    -0.39700
N211        N  0.12673501  0.78071275  0.54434551    -0.37500
N212        N  0.06891433  0.83897297  0.54692169    -0.39900
N213        N  0.13995222  0.91879720  0.05585233    -0.39700
N214        N  0.08751650  0.98161682  0.05111307    -0.37300
N215        N  0.00958106  0.90880440  0.44632303    -0.38300
N216        N  0.06606102  0.84921193  0.44678031    -0.40000
C217        C  0.39738063  0.57026395  0.23866069    -0.04900
C218        C  0.40258017  0.59565683  0.25266617     0.09200
C219        C  0.42796447  0.60028727  0.26690911    -0.02300
C220        C  0.44816786  0.57963537  0.26700518    -0.00600
C221        C  0.44307396  0.55429168  0.25271217    -0.04200
C222        C  0.41756970  0.54962575  0.23864164     0.02800
C223        C  0.38111424  0.61750390  0.25245102     0.09700
C224        C  0.43323171  0.62635081  0.28141990     0.35600
C225        C  0.41169969  0.52320973  0.22514101     0.39000
C226        C  0.36138200  0.61844132  0.27530557    -0.04600
C227        C  0.34059010  0.63853858  0.27475977     0.02600
C228        C  0.33911967  0.65794135  0.25093450    -0.04200
C229        C  0.35915013  0.65660029  0.22787770    -0.00400
C230        C  0.38012569  0.63669464  0.22893573    -0.02900
C231        C  0.36244882  0.59838947  0.29935215     0.36300
C232        C  0.35882605  0.67566352  0.20295435     0.39900
C233        C  0.32044486  0.63831642  0.29856585     0.39100
C234        C  0.40096266  0.63592242  0.20580836     0.36000
C235        C  0.37107356  0.56535498  0.22453694     0.36700
C236        C  0.47445501  0.58471799  0.28115871     0.39900
N237        N  0.30478462  0.63777261  0.31796340    -0.38200
N238        N  0.36335175  0.58233253  0.31843645    -0.39700
N239        N  0.35901552  0.69030140  0.18254309    -0.37500
N240        N  0.41769139  0.63530246  0.18750900    -0.39900
N241        N  0.43741697  0.64715422  0.29299962    -0.39700
N242        N  0.49544682  0.58868212  0.29241649    -0.37300
N243        N  0.40703278  0.50208825  0.21450173    -0.38300
N244        N  0.35003375  0.56149543  0.21335896    -0.40000
C245        C  0.28029831  0.74220386  0.14727428    -0.04900
C246        C  0.25283812  0.73664399  0.13940155     0.09200
C247        C  0.23624620  0.72152697  0.15935081    -0.02300
C248        C  0.24715476  0.71174772  0.18673156    -0.00600
C249        C  0.27455700  0.71751525  0.19463979    -0.04200
C250        C  0.29089558  0.73324827  0.17507968     0.02800
C251        C  0.24123845  0.74752615  0.11049243     0.09700
C252        C  0.20783953  0.71635190  0.15181960     0.35600
C253        C  0.31807648  0.74165650  0.18435587     0.39000
C254        C  0.23698472  0.72991828  0.08582677    -0.04600
C255        C  0.22652020  0.74030738  0.05848939     0.02600
C256        C  0.22063487  0.76864467  0.05532915    -0.04200
C257        C  0.22513923  0.78624765  0.08016790    -0.00400
C258        C  0.23502527  0.77565168  0.10762546    -0.02900
C259        C  0.24360005  0.70103899  0.08859065     0.36300
C260        C  0.22074894  0.81554885  0.07733300     0.39900
C261        C  0.22120839  0.72152300  0.03394772     0.39100
C262        C  0.23895103  0.79376440  0.13307798     0.36000
C263        C  0.29763799  0.75726582  0.12671940     0.36700
C264        C  0.23022061  0.69564640  0.20675408     0.39900
N265        N  0.21699789  0.70649294  0.01440324    -0.38200
N266        N  0.24885771  0.67800463  0.09088570    -0.39700
N267        N  0.21731961  0.83893312  0.07510359    -0.37500
N268        N  0.24215042  0.80815705  0.15340418    -0.39900
N269        N  0.18517189  0.71225334  0.14576321    -0.39700
N270        N  0.21675987  0.68278804  0.22276858    -0.37300
N271        N  0.33958992  0.74877338  0.19193618    -0.38300
N272        N  0.31144434  0.76926033  0.11027003    -0.40000
C273        C  0.21796427  0.75964528  0.39099791    -0.04900
C274        C  0.24584950  0.75244913  0.38900317     0.09200
C275        C  0.26282581  0.75528412  0.41444292    -0.02300
C276        C  0.25210798  0.76557665  0.44162326    -0.00600
C277        C  0.22388206  0.77214164  0.44404892    -0.04200
C278        C  0.20688000  0.76886861  0.41841568     0.02800
C279        C  0.25710609  0.74129601  0.36015913     0.09700
C280        C  0.29136235  0.74724570  0.41268223     0.35600
C281        C  0.17765640  0.77381451  0.42025119     0.39000
C282        C  0.27379506  0.75776324  0.34162125    -0.04600
C283        C  0.28378814  0.74735907  0.31419215     0.02600
C284        C  0.27690126  0.72056915  0.30497927    -0.04200
C285        C  0.25998233  0.70422643  0.32328707    -0.01200
C286        C  0.25042773  0.71440142  0.35095763    -0.02900
C287        C  0.28048313  0.78549693  0.35068958     0.36300
C288        C  0.25156266  0.67728682  0.31310789     0.39900
C289        C  0.30134059  0.76411300  0.29549460     0.39100
C290        C  0.23362626  0.69721376  0.37000665     0.36000
C291        C  0.20058177  0.75736615  0.36466983     0.36700
C292        C  0.27053466  0.77008747  0.46670380     0.39900
N293        N  0.31537228  0.77739684  0.28051884    -0.38200
N294        N  0.28586876  0.80760466  0.35798713    -0.39700
N295        N  0.24464951  0.65589179  0.30486637    -0.37500
N296        N  0.22016616  0.68356488  0.38521454    -0.39900
N297        N  0.31410203  0.74077667  0.41121960    -0.39700
N298        N  0.28531630  0.77370743  0.48663262    -0.37300
N299        N  0.15432641  0.77766553  0.42162793    -0.38300
N300        N  0.18679395  0.75548375  0.34363357    -0.40000
C301        C  0.87455763  0.14032969  0.01787136    -0.04900
C302        C  0.87517635  0.11633822  0.00024880     0.09200
C303        C  0.85270913  0.11002063  0.48159152    -0.02300
C304        C  0.82952276  0.12726827  0.48088283    -0.00600
C305        C  0.82863057  0.15124583  0.49875007    -0.04200
C306        C  0.85140167  0.15772842  0.01717008     0.02800
C307        C  0.89888065  0.09682439  0.50205771     0.09700
C308        C  0.85338781  0.08539908  0.46336900     0.35600
C309        C  0.85133090  0.18259318  0.03499529     0.39000
C310        C  0.89790669  0.07447165  0.52206339    -0.04600
C311        C  0.91855956  0.05421699  0.52158389     0.02600
C312        C  0.94070516  0.05629149  0.50122681    -0.04200
C313        C  0.94196017  0.07921247  0.98172851    -0.00400
C314        C  0.92119863  0.09941469  0.98229196    -0.02900
C315        C  0.87532374  0.07223635  0.54296829     0.36300
C316        C  0.96480091  0.08239239  0.96134615     0.39900
C317        C  0.91613461  0.03056458  0.54112482     0.39100
C318        C  0.92273451  0.12298984  0.96255790     0.36000
C319        C  0.89778113  0.14702593  0.03678019     0.36700
C320        C  0.80614270  0.11950439  0.46268359     0.39900
N321        N  0.91411219  0.01167521  0.55666506    -0.38200
N322        N  0.85731290  0.07062630  0.55966099    -0.39700
N323        N  0.98294438  0.08500404  0.94498348    -0.37500
N324        N  0.92399059  0.14191128  0.94696856    -0.39900
N325        N  0.85405239  0.06573727  0.44889103    -0.39700
N326        N  0.78756002  0.11313325  0.44814575    -0.37300
N327        N  0.85120993  0.20242009  0.04922985    -0.38300
N328        N  0.91633229  0.15240917  0.05184098    -0.40000
C329        C  0.60788523  0.34421965  0.22905091    -0.04900
C330        C  0.61068200  0.36467300  0.25111269     0.09200
C331        C  0.63206092  0.36304072  0.27224664    -0.02300
C332        C  0.65076413  0.34105240  0.27134688    -0.00600
C333        C  0.64833909  0.32046291  0.24898412    -0.04200
C334        C  0.62669969  0.32230360  0.22776140     0.02800
C335        C  0.59136778  0.38839302  0.25178205     0.09700
C336        C  0.63484247  0.38424787  0.29486288     0.35600
C337        C  0.62311644  0.30141849  0.20493944     0.39000
C338        C  0.56828991  0.38781075  0.27066858    -0.04600
C339        C  0.55022530  0.41033308  0.27145964     0.02600
C340        C  0.55531540  0.43366263  0.25347624    -0.04200
C341        C  0.57858287  0.43425527  0.23474446    -0.00400
C342        C  0.59646980  0.41161081  0.23381372    -0.02900
C343        C  0.56307342  0.36387154  0.28907516     0.36300
C344        C  0.58462080  0.45850581  0.21712454     0.39900
C345        C  0.52584840  0.40900066  0.28991460     0.39100
C346        C  0.62023915  0.41213327  0.21442349     0.36000
C347        C  0.58533104  0.34566438  0.20786902     0.36700
C348        C  0.67288037  0.34028256  0.29312203     0.39900
N349        N  0.50636070  0.40793640  0.30455052    -0.38200
N350        N  0.55896154  0.34476637  0.30376668    -0.39700
N351        N  0.58945117  0.47791214  0.20318613    -0.37500
N352        N  0.63919040  0.41242784  0.19893405    -0.39900
N353        N  0.63697668  0.40120247  0.31285340    -0.39700
N354        N  0.69038704  0.33967020  0.31064061    -0.37300
N355        N  0.62018803  0.28495334  0.18653585    -0.38300
N356        N  0.56725736  0.34683309  0.19109720    -0.40000
C357        C  0.69869043  0.22460103  0.14899324    -0.04900
C358        C  0.72439111  0.23294209  0.13789886     0.09200
C359        C  0.74024629  0.25195781  0.15428013    -0.02300
C360        C  0.73050840  0.26248328  0.18169026    -0.00600
C361        C  0.70480574  0.25416464  0.19273350    -0.04200
C362        C  0.68888436  0.23526031  0.17633624     0.02800
C363        C  0.73471566  0.22210997  0.10864439     0.09700
C364        C  0.76655487  0.26071690  0.14277565     0.35600
C365        C  0.66249653  0.22667675  0.18776520     0.39000
C366        C  0.73202348  0.23797498  0.08244746    -0.04600
C367        C  0.74323214  0.22875057  0.05512510     0.02600
C368        C  0.75685143  0.20297560  0.05355105    -0.04200
C369        C  0.75855566  0.18670407  0.07994806    -0.00400
C370        C  0.74784615  0.19644111  0.10733816    -0.02900
C371        C  0.71777582  0.26407397  0.08377599     0.36300
C372        C  0.77061897  0.15952537  0.07914547     0.39900
C373        C  0.74125198  0.24652884  0.02911425     0.39100
C374        C  0.75046904  0.18014119  0.13441407     0.36000
C375        C  0.68235253  0.20512090  0.13217607     0.36700
C376        C  0.74680990  0.28207527  0.19842492     0.39900
N377        N  0.73942141  0.26085395  0.00849660    -0.38200
N378        N  0.70639133  0.28484012  0.08490349    -0.39700
N379        N  0.78021993  0.13785097  0.07864836    -0.37500
N380        N  0.75252372  0.16720650  0.15607044    -0.39900
N381        N  0.78748389  0.26770796  0.13343174    -0.39700
N382        N  0.75981334  0.29770860  0.21177296    -0.37300
N383        N  0.64145068  0.21988156  0.19696586    -0.38300
N384        N  0.66936126  0.18952033  0.11877128    -0.40000
C385        C  0.75231199  0.23885464  0.40583786    -0.04900
C386        C  0.73472477  0.22192495  0.38885857     0.09200
C387        C  0.72806756  0.19549630  0.39945930    -0.02300
C388        C  0.73940671  0.18583859  0.42661787    -0.00600
C389        C  0.75760354  0.20248194  0.44310737    -0.04200
C390        C  0.76387561  0.22908513  0.43279097     0.02800
C391        C  0.72390560  0.23175303  0.35932350     0.09700
C392        C  0.70949879  0.17832730  0.38239582     0.35600
C393        C  0.78239586  0.24633525  0.44985507     0.39000
C394        C  0.74089367  0.23132142  0.33386527    -0.04600
C395        C  0.73145459  0.24188739  0.30625772     0.02600
C396        C  0.70433752  0.25212605  0.30351664    -0.04200
C397        C  0.68708738  0.25169853  0.32914853    -0.00400
C398        C  0.69706045  0.24202457  0.35694685    -0.02900
C399        C  0.76832158  0.22008793  0.33625824     0.36300
C400        C  0.65880144  0.26060739  0.32713792     0.39900
C401        C  0.75034990  0.24313822  0.28124921     0.39100
C402        C  0.67978801  0.24291046  0.38334689     0.36000
C403        C  0.75828226  0.26642607  0.39559865     0.36700
C404        C  0.73203290  0.15896980  0.43787362     0.39900
N405        N  0.76559185  0.24406603  0.26146137    -0.38200
N406        N  0.79015504  0.21107438  0.33825758    -0.39700
N407        N  0.63624737  0.26773955  0.32564360    -0.37500
N408        N  0.66605495  0.24366131  0.40442631    -0.39900
N409        N  0.69456189  0.16473565  0.36879829    -0.39700
N410        N  0.72602085  0.13758602  0.44693001    -0.37300
N411        N  0.79718320  0.26007043  0.46347781    -0.38300
N412        N  0.76292025  0.28843277  0.38738431    -0.40000
C413        C  0.88125977  0.85266540  0.48165538    -0.04900
C414        C  0.87735484  0.87622666  0.49946710     0.09200
C415        C  0.85307296  0.87913049  0.01618965    -0.02300
C416        C  0.83254889  0.85883841  0.01469507    -0.00600
C417        C  0.83639322  0.83514626  0.99688250    -0.04200
C418        C  0.86094077  0.83214594  0.48042820     0.02800
C419        C  0.89874225  0.89820775  0.00028949     0.09700
C420        C  0.84936645  0.90297985  0.03515770     0.35600
C421        C  0.86578780  0.80755549  0.46295247     0.39000
C422        C  0.89540145  0.92219862  0.48297639    -0.04600
C423        C  0.91555520  0.94288807  0.48356808     0.02600
C424        C  0.93958280  0.93942380  0.00092937    -0.04200
C425        C  0.94290640  0.91532000  0.01822349    -0.00400
C426        C  0.92242176  0.89493814  0.01811055    -0.02900
C427        C  0.87125832  0.92542060  0.46431046     0.36300
C428        C  0.96787464  0.91092507  0.03524085     0.39900
C429        C  0.91107820  0.96814548  0.46706821     0.39100
C430        C  0.92571252  0.87044567  0.03620957     0.36000
C431        C  0.90637720  0.84951280  0.46474493     0.36700
C432        C  0.80707924  0.86287693  0.03073326     0.39900
N433        N  0.90746637  0.98836152  0.45405863    -0.38200
N434        N  0.85199866  0.92789350  0.44939847    -0.39700
N435        N  0.98784684  0.90740040  0.04870655    -0.37500
N436        N  0.92827793  0.85087121  0.05060728    -0.39900
N437        N  0.84649758  0.92198323  0.05034575    -0.39700
N438        N  0.78671966  0.86612199  0.04343596    -0.37300
N439        N  0.86969190  0.78793616  0.44902777    -0.38300
N440        N  0.92650166  0.84703558  0.45140829    -0.40000
C441        C  0.59695249  0.57863782  0.27203625    -0.04900
C442        C  0.59943796  0.59517488  0.24631365     0.09200
C443        C  0.58225315  0.59053148  0.22143353    -0.02300
C444        C  0.56218641  0.56975385  0.22242072    -0.00600
C445        C  0.55954095  0.55285374  0.24827323    -0.04200
C446        C  0.57758129  0.55726302  0.27288061     0.02800
C447        C  0.62040041  0.61747467  0.24550903     0.09700
C448        C  0.58522957  0.60733851  0.19477020     0.35600
C449        C  0.57706034  0.53949313  0.29898433     0.39000
C450        C  0.64827638  0.61091633  0.24141456    -0.04600
C451        C  0.66818050  0.63179015  0.24181083     0.02600
C452        C  0.66026291  0.65933032  0.24593383    -0.04200
C453        C  0.63242263  0.66592975  0.25000666    -0.00400
C454        C  0.61251159  0.64503315  0.24980207    -0.02900
C455        C  0.65642657  0.58262563  0.23693602     0.36300
C456        C  0.62426577  0.69423638  0.25426472     0.39900
C457        C  0.69689964  0.62486499  0.23877194     0.39100
C458        C  0.58389928  0.65180036  0.25415987     0.36000
C459        C  0.61434353  0.58385768  0.29785845     0.36700
C460        C  0.54403045  0.56651962  0.19685798     0.39900
N461        N  0.71981844  0.61927940  0.23657423    -0.38200
N462        N  0.66286471  0.56002487  0.23346954    -0.39700
N463        N  0.61769099  0.71680842  0.25764135    -0.37500
N464        N  0.56104027  0.65713723  0.25751114    -0.39900
N465        N  0.58760744  0.62079217  0.17355916    -0.39700
N466        N  0.52965788  0.56404961  0.17636271    -0.37300
N467        N  0.57679411  0.52536787  0.31983923    -0.38300
N468        N  0.62822142  0.58811151  0.31839967    -0.40000
C469        C  0.71464356  0.73995449  0.35132556    -0.04900
C470        C  0.74315976  0.74208480  0.35544883     0.09200
C471        C  0.76094974  0.73414979  0.33219090    -0.02300
C472        C  0.75031436  0.72416174  0.30483991    -0.00600
C473        C  0.72166511  0.72210505  0.30046687    -0.04200
C474        C  0.70388797  0.73000071  0.32400172     0.02800
C475        C  0.75452690  0.75265242  0.38443934     0.09700
C476        C  0.79029597  0.73610598  0.33660222     0.35600
C477        C  0.67446146  0.72853987  0.32010199     0.39000
C478        C  0.76217682  0.73422557  0.40733453    -0.04600
C479        C  0.77315921  0.74412320  0.43455752     0.02600
C480        C  0.77622843  0.77267365  0.43928024    -0.04200
C481        C  0.76841414  0.79109806  0.41621546    -0.00400
C482        C  0.75766284  0.78107314  0.38893083    -0.02900
C483        C  0.75851437  0.70501223  0.40285833     0.36300
C484        C  0.77046499  0.82046284  0.42079060     0.39900
C485        C  0.78202577  0.72475728  0.45730009     0.39100
C486        C  0.74944974  0.80000188  0.36547648     0.36000
C487        C  0.69639466  0.74805090  0.37535779     0.36700
C488        C  0.76901582  0.71499002  0.28170894     0.39900
N489        N  0.78912284  0.70930753  0.47542581    -0.38200
N490        N  0.75549112  0.68172486  0.39926155    -0.39700
N491        N  0.77210789  0.84388982  0.42440661    -0.37500
N492        N  0.74279676  0.81504017  0.34675036    -0.39900
N493        N  0.81369619  0.73764675  0.34021911    -0.39700
N494        N  0.78392272  0.70763424  0.26326691    -0.37300
N495        N  0.65094258  0.72741415  0.31735942    -0.38300
N496        N  0.68192091  0.75454658  0.39458190    -0.40000
C497        C  0.78124251  0.75772398  0.10272847    -0.04900
C498        C  0.75348648  0.75020727  0.10481608     0.09200
C499        C  0.73630545  0.75288886  0.07955887    -0.02300
C500        C  0.74653333  0.76398651  0.05257850    -0.00600
C501        C  0.77449674  0.77156639  0.05023179    -0.04200
C502        C  0.79184216  0.76798870  0.07553626     0.02800
C503        C  0.74223036  0.73983904  0.13390332     0.09700
C504        C  0.70799536  0.74413801  0.08142245     0.35600
C505        C  0.82086733  0.77395431  0.07360175     0.39000
C506        C  0.73445015  0.75848774  0.15647462    -0.04600
C507        C  0.72422533  0.74884393  0.18410663     0.02600
C508        C  0.72149781  0.72034202  0.18935051    -0.04200
C509        C  0.72891902  0.70170733  0.16635972    -0.00400
C510        C  0.73937336  0.71146407  0.13886947    -0.02900
C511        C  0.73665568  0.78770657  0.15098729     0.36300
C512        C  0.72642217  0.67239251  0.17094572     0.39900
C513        C  0.71553468  0.76842359  0.20663254     0.39100
C514        C  0.74735618  0.69230582  0.11559895     0.36000
C515        C  0.79896929  0.75461664  0.12866762     0.36700
C516        C  0.72779357  0.76849874  0.02776133     0.39900
N517        N  0.70858404  0.78404940  0.22458446    -0.38200
N518        N  0.73839701  0.81099639  0.14648998    -0.39700
N519        N  0.72439895  0.64895256  0.17416940    -0.37500
N520        N  0.75369721  0.67707255  0.09698548    -0.39900
N521        N  0.68550113  0.73689192  0.08288732    -0.39700
N522        N  0.71277080  0.77212217  0.00804114    -0.37300
N523        N  0.84402424  0.77868438  0.07211653    -0.38300
N524        N  0.81304678  0.75217146  0.14940670    -0.40000
C525        C  0.68111916  0.68119840  0.74564445     0.80800
N526        N  0.69107234  0.69045250  0.71914014    -0.77600
C527        C  0.71067812  0.71015264  0.71858343     0.83200
N528        N  0.72029386  0.72046520  0.74493175    -0.77500
C529        C  0.71046112  0.71128209  0.77163701     0.83300
N530        N  0.69083306  0.69157433  0.77181875    -0.79200
C531        C  0.81506804  0.81335827  0.49597531     0.80800
N532        N  0.80462541  0.80322960  0.52191704    -0.77600
C533        C  0.78556450  0.78296098  0.52152070     0.83200
N534        N  0.77680116  0.77308408  0.49467547    -0.77500
C535        C  0.78678053  0.78320839  0.96850820     0.83300
N536        N  0.80604317  0.80328412  0.96931442    -0.79200
C537        C  0.66794532  0.29693573  0.74829616     0.80800
N538        N  0.67675669  0.28544747  0.77433449    -0.77600
C539        C  0.69434210  0.26389575  0.77440878     0.83200
N540        N  0.70310702  0.25370788  0.74774536    -0.77500
C541        C  0.69467620  0.26510463  0.72153169     0.83300
N542        N  0.67718423  0.28671876  0.72184018    -0.79200
C543        C  0.80383200  0.16917801  0.99841084     0.80800
N544        N  0.79229917  0.17693757  0.97194264    -0.77600
C545        C  0.76935016  0.19262590  0.97172087     0.83200
N546        N  0.75789369  0.20051926  0.99796750    -0.77500
C547        C  0.76926304  0.19328548  0.52463487     0.83300
N548        N  0.79235441  0.17764316  0.52459766    -0.79200
C549        C  0.31703384  0.67944744  0.75037476     0.80800
N550        N  0.30756151  0.69035166  0.77643661    -0.77600
C551        C  0.28742875  0.70953752  0.77628409     0.83200
N552        N  0.27667499  0.71816862  0.74981972    -0.77500
C553        C  0.28599665  0.70762813  0.72358245     0.83300
N554        N  0.30606294  0.68828005  0.72395725    -0.79200
C555        C  0.18084333  0.81000268  0.99964222     0.80800
N556        N  0.19215039  0.80147147  0.97343709    -0.77600
C557        C  0.21212770  0.78204068  0.97318442     0.83200
N558        N  0.22098865  0.77143052  0.99972178    -0.77500
C559        C  0.21012821  0.77991071  0.52620557     0.83300
N560        N  0.18991816  0.79910032  0.52591791    -0.79200
O561        O  0.96970591  0.97072394  0.97613390    -0.71200
O562        O  0.02714090  0.02323340  0.97510015    -0.71500
O563        O  0.02467664  0.96801179  0.97524961    -0.71300
O564        O  0.97202356  0.02581775  0.97604544    -0.71300
O565        O  0.97149498  0.02435919  0.52465363    -0.71300
O566        O  0.02691907  0.96962326  0.52380764    -0.71300
O567        O  0.02638696  0.02488142  0.52345819    -0.71300
O568        O  0.97198657  0.96924775  0.52475130    -0.71400
V569        V  0.99841659  0.99696438  0.97653861     1.35200
V570        V  0.99920669  0.99703460  0.52322519     1.35200
C571        C  0.96132730  0.96073722  0.50061682     0.78000
C572        C  0.03641477  0.03353823  0.49909843     0.78000
C573        C  0.03492531  0.95904261  0.99946303     0.77900
C574        C  0.96239135  0.03462934  0.00056181     0.77900
O575        O  0.52751231  0.46738289  0.77764564    -0.71200
O576        O  0.47456949  0.52428894  0.77715168    -0.71500
O577        O  0.47284060  0.46933866  0.77973815    -0.71300
O578        O  0.52917888  0.52258894  0.77492435    -0.71300
O579        O  0.52727146  0.52108417  0.72648194    -0.71300
O580        O  0.47186008  0.46686188  0.73107491    -0.71300
O581        O  0.47223054  0.52183820  0.72854755    -0.71300
O582        O  0.52644586  0.46615854  0.72895267    -0.71400
V583        V  0.50104148  0.49587699  0.77642228     1.35200
V584        V  0.49947745  0.49408036  0.72970104     1.35200
C585        C  0.53574585  0.45686902  0.75338580     0.78000
C586        C  0.46423205  0.53256985  0.75278950     0.78000
C587        C  0.46306901  0.45875929  0.75617776     0.77900
C588        C  0.53780813  0.53119761  0.74992315     0.77900
C589        C  0.18610477  0.17830254  0.00231001     0.80800
N590        N  0.19601055  0.18846517  0.97617866    -0.77600
C591        C  0.21555928  0.20819716  0.97645778     0.83200
N592        N  0.22520535  0.21776413  0.00300859    -0.77500
C593        C  0.21536677  0.20784183  0.52930912     0.83300
N594        N  0.19569128  0.18810066  0.52889949    -0.79200
C595        C  0.31634837  0.31286022  0.75372945     0.80800
N596        N  0.30661296  0.30332093  0.72714425    -0.77600
C597        C  0.28633026  0.28427253  0.72645217     0.83200
N598        N  0.27570580  0.27499664  0.75271515    -0.77500
C599        C  0.28529475  0.28428023  0.77949916     0.83300
N600        N  0.30569511  0.30311202  0.77966678    -0.79200
C601        C  0.21678469  0.24450112  0.90107869    -0.04900
C602        C  0.24466812  0.24231458  0.89342400     0.09200
C603        C  0.26313747  0.22944015  0.91330337    -0.02300
C604        C  0.25367729  0.21839306  0.94059048    -0.00600
C605        C  0.22562943  0.21996192  0.94794657    -0.04200
C606        C  0.20722476  0.23317570  0.92817426     0.02800
C607        C  0.25455873  0.25325769  0.86410730     0.09700
C608        C  0.29187932  0.22759441  0.90556237     0.35600
C609        C  0.17856917  0.23578469  0.93609280     0.39000
C610        C  0.26303689  0.28071547  0.86172920    -0.04600
C611        C  0.27244700  0.29106049  0.83407604     0.02600
C612        C  0.27401832  0.27370875  0.80849933    -0.04200
C613        C  0.26537227  0.24602162  0.81120119    -0.00400
C614        C  0.25548866  0.23603170  0.83881385    -0.02900
C615        C  0.26210968  0.29830001  0.88795485     0.36300
C616        C  0.26744551  0.22724523  0.78608163     0.39900
C617        C  0.27983817  0.31981699  0.83216647     0.39100
C618        C  0.24641230  0.20781776  0.84140551     0.36000
C619        C  0.19804673  0.25869396  0.88113548     0.36700
C620        C  0.27269150  0.20479941  0.96073338     0.39900
N621        N  0.28579434  0.34273846  0.83081468    -0.38200
N622        N  0.26139499  0.31225049  0.90891872    -0.39700
N623        N  0.26901786  0.21219101  0.76610764    -0.37500
N624        N  0.23912691  0.18534627  0.84356112    -0.39900
N625        N  0.31479882  0.22618394  0.89931457    -0.39700
N626        N  0.28783795  0.19396044  0.97683207    -0.37300
N627        N  0.15572978  0.23783894  0.94248556    -0.38300
N628        N  0.18318941  0.27017964  0.86525621    -0.40000
C629        C  0.24655523  0.21233692  0.60769382    -0.04900
C630        C  0.24661306  0.24091234  0.61254411     0.09200
C631        C  0.23640844  0.25859970  0.59012576    -0.02300
C632        C  0.22597262  0.24778092  0.56307472    -0.00600
C633        C  0.22576396  0.21911249  0.55817930    -0.04200
C634        C  0.23619109  0.20144595  0.58061859     0.02800
C635        C  0.25687274  0.25235313  0.64164961     0.09700
C636        C  0.23665475  0.28799017  0.59499188     0.35600
C637        C  0.23713138  0.17210955  0.57550421     0.39000
C638        C  0.28514585  0.25607329  0.64645791    -0.04600
C639        C  0.29481412  0.26611844  0.67422146     0.02600
C640        C  0.27614806  0.27331734  0.69720355    -0.04200
C641        C  0.24773462  0.26972379  0.69211782    -0.00400
C642        C  0.23823247  0.25908904  0.66456316    -0.02900
C643        C  0.30429709  0.24946283  0.62273996     0.36300
C644        C  0.22805260  0.27748779  0.71488255     0.39900
C645        C  0.32408143  0.26776374  0.67946788     0.39100
C646        C  0.20917059  0.25492354  0.65969997     0.36000
C647        C  0.25726483  0.19418477  0.63066584     0.36700
C648        C  0.21474103  0.26620126  0.54063222     0.39900
N649        N  0.34742325  0.26893720  0.68370834    -0.38200
N650        N  0.31955758  0.24423510  0.60378871    -0.39700
N651        N  0.21230999  0.28360739  0.73302751    -0.37500
N652        N  0.18601604  0.25153920  0.65570704    -0.39900
N653        N  0.23685323  0.31143148  0.59891126    -0.39700
N654        N  0.20577653  0.28085116  0.52270112    -0.37300
N655        N  0.23793238  0.14870635  0.57139998    -0.38300
N656        N  0.26590437  0.17981797  0.64905084    -0.40000
C657        C  0.42595387  0.39150604  0.74314343    -0.04900
C658        C  0.40144137  0.39591177  0.75902935     0.09200
C659        C  0.39753649  0.42058973  0.77494173    -0.02300
C660        C  0.41780159  0.44113806  0.77430448    -0.00600
C661        C  0.44209269  0.43698019  0.75781933    -0.04200
C662        C  0.44627613  0.41193739  0.74259446     0.02800
C663        C  0.37936570  0.37478825  0.75809112     0.09700
C664        C  0.37252754  0.42485420  0.79172990     0.35600
C665        C  0.47179911  0.40687947  0.72696933     0.39000
C666        C  0.38067431  0.35171626  0.77703899    -0.04600
C667        C  0.36041361  0.33122832  0.77522735     0.02600
C668        C  0.33836026  0.33393057  0.75470991    -0.04200
C669        C  0.33708827  0.35727009  0.73585695    -0.00400
C670        C  0.35762225  0.37750173  0.73747134    -0.02900
C671        C  0.40300404  0.34909114  0.79835972     0.36300
C672        C  0.31426269  0.36107206  0.71540348     0.39900
C673        C  0.36289768  0.30696057  0.79387107     0.39100
C674        C  0.35649283  0.40122599  0.71786950     0.36000
C675        C  0.43011242  0.36594647  0.72718417     0.36700
C676        C  0.41319006  0.46694658  0.78964111     0.39900
N677        N  0.36489138  0.28760254  0.80872582    -0.38200
N678        N  0.42082404  0.34703413  0.81535573    -0.39700
N679        N  0.29608685  0.36416654  0.69905727    -0.37500
N680        N  0.35570843  0.42020340  0.70231843    -0.39900
N681        N  0.35256089  0.42822588  0.80511733    -0.39700
N682        N  0.40955123  0.48758217  0.80178393    -0.37300
N683        N  0.49218849  0.40283828  0.71459745    -0.38300
N684        N  0.43337137  0.34550634  0.71453710    -0.40000
C685        C  0.11632510  0.14415122  0.50657866    -0.04900
C686        C  0.12270062  0.11701412  0.49811581     0.09200
C687        C  0.14994479  0.11006701  0.99092954    -0.02300
C688        C  0.17073910  0.13009257  0.99249277    -0.00600
C689        C  0.16443130  0.15709217  0.50153393    -0.04200
C690        C  0.13716145  0.16408966  0.50849294     0.02800
C691        C  0.10082345  0.09548768  0.49807578     0.09700
C692        C  0.15652734  0.08224881  0.98208710     0.35600
C693        C  0.13048808  0.19196633  0.51706258     0.39000
C694        C  0.08702665  0.08857986  0.97139545    -0.04600
C695        C  0.06596163  0.06871510  0.97159034     0.02600
C696        C  0.05854530  0.05515873  0.49873795    -0.04200
C697        C  0.07264357  0.06256614  0.52558304    -0.00400
C698        C  0.09362422  0.08244593  0.52505685    -0.02900
C699        C  0.09452966  0.10215332  0.94363963     0.36300
C700        C  0.06595043  0.05004703  0.55415729     0.39900
C701        C  0.05175460  0.06306932  0.94365078     0.39100
C702        C  0.10808807  0.08955500  0.55245717     0.36000
C703        C  0.08821334  0.15152597  0.51305271     0.36700
C704        C  0.19874326  0.12284590  0.98529362     0.39900
N705        N  0.04055763  0.05875037  0.92123811    -0.38200
N706        N  0.10056989  0.11293654  0.92150934    -0.39700
N707        N  0.06067590  0.04034076  0.57711150    -0.37500
N708        N  0.11968583  0.09528803  0.57422350    -0.39900
N709        N  0.16171917  0.06004310  0.97498545    -0.39700
N710        N  0.22111383  0.11713390  0.97959254    -0.37300
N711        N  0.12522395  0.21422870  0.52388193    -0.38300
N712        N  0.06573464  0.15733132  0.51809181    -0.40000
C713        C  0.07208946  0.89187659  0.98135542    -0.04900
C714        C  0.09505753  0.89345008  0.00052631     0.09200
C715        C  0.09817858  0.91641193  0.51944013    -0.02300
C716        C  0.07887256  0.93797802  0.51871570    -0.00600
C717        C  0.05576803  0.93653939  0.99951210    -0.04200
C718        C  0.05248513  0.91323172  0.98087785     0.02800
C719        C  0.11674187  0.87157519  0.49984736     0.09700
C720        C  0.12142494  0.91780178  0.53967697     0.35600
C721        C  0.02861273  0.91078328  0.96166936     0.39000
C722        C  0.14087403  0.87575035  0.48315459    -0.04600
C723        C  0.16178450  0.85574213  0.48308470     0.02600
C724        C  0.15867589  0.83112566  0.99955257    -0.04200
C725        C  0.13425464  0.82681166  0.01592158    -0.00400
C726        C  0.11347768  0.84700541  0.01616405    -0.02900
C727        C  0.14415965  0.90083678  0.46607954     0.36300
C728        C  0.13004769  0.80119916  0.03178270     0.39900
C729        C  0.18689394  0.86103436  0.46681997     0.39100
C730        C  0.08869689  0.84256070  0.03328016     0.36000
C731        C  0.06871215  0.86818802  0.96207035     0.36700
C732        C  0.08359901  0.96222572  0.53680591     0.39900
N733        N  0.20692495  0.86529655  0.45385801    -0.38200
N734        N  0.14666508  0.92089270  0.45250990    -0.39700
N735        N  0.12673668  0.78071578  0.04435027    -0.37500
N736        N  0.06891580  0.83897575  0.04692460    -0.39900
N737        N  0.13995313  0.91879695  0.55585089    -0.39700
N738        N  0.08751810  0.98161707  0.55111088    -0.37300
N739        N  0.00958290  0.90880659  0.94631995    -0.38300
N740        N  0.06606263  0.84921391  0.94677849    -0.40000
C741        C  0.39738226  0.57026608  0.73865970    -0.04900
C742        C  0.40258202  0.59565857  0.75266600     0.09200
C743        C  0.42796600  0.60028817  0.76690979    -0.02300
C744        C  0.44816894  0.57963584  0.76700617    -0.00600
C745        C  0.44307475  0.55429238  0.75271241    -0.04200
C746        C  0.41757088  0.54962745  0.73864097     0.02800
C747        C  0.38111624  0.61750591  0.75245110     0.09700
C748        C  0.43323350  0.62635141  0.78142127     0.35600
C749        C  0.41170056  0.52321175  0.72513953     0.39000
C750        C  0.36138396  0.61844295  0.77530563    -0.04600
C751        C  0.34059180  0.63854010  0.77475971     0.02600
C752        C  0.33912134  0.65794281  0.75093462    -0.04200
C753        C  0.35915192  0.65660229  0.72787789    -0.00400
C754        C  0.38012776  0.63669678  0.72893604    -0.02900
C755        C  0.36245081  0.59839113  0.79935197     0.36300
C756        C  0.35882776  0.67566556  0.70295479     0.39900
C757        C  0.32044638  0.63831751  0.79856559     0.39100
C758        C  0.40096496  0.63592506  0.70580889     0.36000
C759        C  0.37107554  0.56535801  0.72453494     0.36700
C760        C  0.47445583  0.58471756  0.78116065     0.39900
N761        N  0.30478590  0.63777349  0.81796293    -0.38200
N762        N  0.36335383  0.58233400  0.81843632    -0.39700
N763        N  0.35901709  0.69030368  0.68254360    -0.37500
N764        N  0.41769390  0.63530543  0.68750976    -0.39900
N765        N  0.43741892  0.64715447  0.79300148    -0.39700
N766        N  0.49544736  0.58868102  0.79241917    -0.37300
N767        N  0.40703345  0.50209059  0.71449964    -0.38300
N768        N  0.35003592  0.56149916  0.71335611    -0.40000
C769        C  0.28029754  0.74220463  0.64727478    -0.04900
C770        C  0.25283742  0.73664399  0.63940212     0.09200
C771        C  0.23624608  0.72152635  0.65935130    -0.02300
C772        C  0.24715494  0.71174710  0.68673190    -0.00600
C773        C  0.27455717  0.71751524  0.69463994    -0.04200
C774        C  0.29089513  0.73324892  0.67507998     0.02800
C775        C  0.24123747  0.74752599  0.61049313     0.09700
C776        C  0.20783939  0.71635057  0.65182018     0.35600
C777        C  0.31807596  0.74165778  0.68435612     0.39000
C778        C  0.23698413  0.72991799  0.58582738    -0.04600
C779        C  0.22651968  0.74030705  0.55849001     0.02600
C780        C  0.22063427  0.76864424  0.55532958    -0.04200
C781        C  0.22513811  0.78624736  0.58016846    -0.00400
C782        C  0.23502381  0.77565135  0.60762612    -0.02900
C783        C  0.24359980  0.70103893  0.58859130     0.36300
C784        C  0.22074768  0.81554835  0.57733349     0.39900
C785        C  0.22120793  0.72152248  0.53394828     0.39100
C786        C  0.23894876  0.79376411  0.63307895     0.36000
C787        C  0.29763660  0.75726736  0.62672014     0.36700
C788        C  0.23022136  0.69564528  0.70675432     0.39900
N789        N  0.21699744  0.70649243  0.51440400    -0.38200
N790        N  0.24885778  0.67800448  0.59088637    -0.39700
N791        N  0.21731819  0.83893282  0.57510403    -0.37500
N792        N  0.24214736  0.80815665  0.65340518    -0.39900
N793        N  0.18517195  0.71225150  0.64576387    -0.39700
N794        N  0.21676094  0.68278643  0.72276887    -0.37300
N795        N  0.33958919  0.74877508  0.69193633    -0.38300
N796        N  0.31144256  0.76926265  0.61027087    -0.40000
C797        C  0.21796461  0.75964731  0.89099706    -0.04900
C798        C  0.24584965  0.75245036  0.88900257     0.09200
C799        C  0.26282575  0.75528447  0.91444266    -0.02300
C800        C  0.25210784  0.76557684  0.94162305    -0.00600
C801        C  0.22388200  0.77214251  0.94404847    -0.04200
C802        C  0.20688021  0.76887036  0.91841488     0.02800
C803        C  0.25710631  0.74129720  0.86015866     0.09700
C804        C  0.29136201  0.74724528  0.91268223     0.35600
C805        C  0.17765672  0.77381683  0.92025006     0.39000
C806        C  0.27379606  0.75776401  0.84162118    -0.04600
C807        C  0.28378948  0.74735972  0.81419240     0.02600
C808        C  0.27690220  0.72056994  0.80497921    -0.04200
C809        C  0.25998264  0.70422757  0.82328671    -0.01200
C810        C  0.25042754  0.71440272  0.85095687    -0.02900
C811        C  0.28048454  0.78549765  0.85068980     0.36300
C812        C  0.25156306  0.67728777  0.81310746     0.39900
C813        C  0.30134277  0.76411322  0.79549527     0.39100
C814        C  0.23362511  0.69721552  0.87000537     0.36000
C815        C  0.20058245  0.75736930  0.86466857     0.36700
C816        C  0.27053441  0.77008679  0.96670388     0.39900
N817        N  0.31537512  0.77739672  0.78051996    -0.38200
N818        N  0.28587047  0.80760514  0.85798741    -0.39700
N819        N  0.24465011  0.65589283  0.80486606    -0.37500
N820        N  0.22016419  0.68356697  0.88521278    -0.39900
N821        N  0.31410165  0.74077560  0.91121976    -0.39700
N822        N  0.28531599  0.77370600  0.98663292    -0.37300
N823        N  0.15432674  0.77766827  0.92162650    -0.38300
N824        N  0.18679494  0.75548784  0.84363198    -0.40000
C825        C  0.87455755  0.14032846  0.51787100    -0.04900
C826        C  0.87517568  0.11633625  0.50024961     0.09200
C827        C  0.85271021  0.11002348  0.98158955    -0.02300
C828        C  0.82952385  0.12727101  0.98088134    -0.00600
C829        C  0.82863096  0.15124775  0.99874981    -0.04200
C830        C  0.85140154  0.15772721  0.51716933     0.02800
C831        C  0.89888105  0.09682609  0.00205686     0.09700
C832        C  0.85338961  0.08540300  0.96336548     0.35600
C833        C  0.85133128  0.18259285  0.53499330     0.39000
C834        C  0.89790597  0.07447225  0.02206119    -0.04600
C835        C  0.91855863  0.05421740  0.02158133     0.02600
C836        C  0.94070507  0.05629262  0.00122571    -0.04200
C837        C  0.94195908  0.07921032  0.48172829    -0.00400
C838        C  0.92119738  0.09941237  0.48229148    -0.02900
C839        C  0.87532231  0.07223627  0.04296487     0.36300
C840        C  0.96479892  0.08238954  0.46134436     0.39900
C841        C  0.91613248  0.03056377  0.04112058     0.39100
C842        C  0.92273210  0.12298646  0.46255602     0.36000
C843        C  0.89778133  0.14702541  0.53677881     0.36700
C844        C  0.80614406  0.11950769  0.96268107     0.39900
N845        N  0.91410917  0.01167359  0.05665922    -0.38200
N846        N  0.85731076  0.07062566  0.05965677    -0.39700
N847        N  0.98294147  0.08500062  0.44498058    -0.37500
N848        N  0.92398728  0.14190724  0.44696540    -0.39900
N849        N  0.85405469  0.06574197  0.94888608    -0.39700
N850        N  0.78756181  0.11313706  0.94814260    -0.37300
N851        N  0.85121066  0.20242032  0.54922668    -0.38300
N852        N  0.91633290  0.15240924  0.55183900    -0.40000
C853        C  0.60788511  0.34421919  0.72905059    -0.04900
C854        C  0.61068141  0.36467233  0.75111265     0.09200
C855        C  0.63206014  0.36304005  0.77224684    -0.02300
C856        C  0.65076370  0.34105208  0.77134691    -0.00600
C857        C  0.64833924  0.32046288  0.74898379    -0.04200
C858        C  0.62669990  0.32230342  0.72776094     0.02800
C859        C  0.59136705  0.38839224  0.75178200     0.09700
C860        C  0.63484107  0.38424692  0.79486360     0.35600
C861        C  0.62311706  0.30141843  0.70493886     0.39000
C862        C  0.56828925  0.38780990  0.77066865    -0.04600
C863        C  0.55022469  0.41033228  0.77145998     0.02600
C864        C  0.55531477  0.43366194  0.75347669    -0.04200
C865        C  0.57858211  0.43425458  0.73474472    -0.00400
C866        C  0.59646897  0.41161009  0.73381374    -0.02900
C867        C  0.56307277  0.36387060  0.78907504     0.36300
C868        C  0.58462000  0.45850515  0.71712495     0.39900
C869        C  0.52584791  0.40899984  0.78991516     0.39100
C870        C  0.62023820  0.41213258  0.71442329     0.36000
C871        C  0.58533099  0.34566378  0.70786857     0.36700
C872        C  0.67287974  0.34028226  0.79312240     0.39900
N873        N  0.50636032  0.40793553  0.80455125    -0.38200
N874        N  0.55896092  0.34476526  0.80376643    -0.39700
N875        N  0.58945033  0.47791158  0.70318657    -0.37500
N876        N  0.63918930  0.41242718  0.69893372    -0.39900
N877        N  0.63697477  0.40120116  0.81285446    -0.39700
N878        N  0.69038616  0.33966987  0.81064118    -0.37300
N879        N  0.62018892  0.28495328  0.68653513    -0.38300
N880        N  0.56725741  0.34683238  0.69109666    -0.40000
C881        C  0.69869155  0.22460187  0.64899265    -0.04900
C882        C  0.72439192  0.23294338  0.63789792     0.09200
C883        C  0.74024692  0.25195955  0.65427874    -0.02300
C884        C  0.73050915  0.26248492  0.68168907    -0.00600
C885        C  0.70480685  0.25416571  0.69273271    -0.04200
C886        C  0.68888560  0.23526103  0.67633583     0.02800
C887        C  0.73471655  0.22211085  0.60864361     0.09700
C888        C  0.76655510  0.26071916  0.64277382     0.35600
C889        C  0.66249820  0.22667696  0.68776516     0.39000
C890        C  0.73202379  0.23797516  0.58244627    -0.04600
C891        C  0.74323235  0.22875022  0.55512403     0.02600
C892        C  0.75685182  0.20297536  0.55355055    -0.04200
C893        C  0.75855656  0.18670447  0.57994802    -0.00400
C894        C  0.74784738  0.19644218  0.60733802    -0.02900
C895        C  0.71777551  0.26407383  0.58377414     0.36300
C896        C  0.77061989  0.15952576  0.57914607     0.39900
C897        C  0.74125186  0.24652795  0.52911275     0.39100
C898        C  0.75047103  0.18014308  0.63441443     0.36000
C899        C  0.68235379  0.20512141  0.63217584     0.36700
C900        C  0.74681049  0.28207720  0.69842339     0.39900
N901        N  0.73942103  0.26085263  0.50849477    -0.38200
N902        N  0.70639053  0.28483971  0.58490103    -0.39700
N903        N  0.78022084  0.13785137  0.57864950    -0.37500
N904        N  0.75252633  0.16720906  0.65607123    -0.39900
N905        N  0.78748389  0.26771061  0.63342944    -0.39700
N906        N  0.75981385  0.29771082  0.71177125    -0.37300
N907        N  0.64145252  0.21988132  0.69696628    -0.38300
N908        N  0.66936266  0.18952056  0.61877123    -0.40000
C909        C  0.75231153  0.23885556  0.90583767    -0.04900
C910        C  0.73472449  0.22192554  0.88885859     0.09200
C911        C  0.72806723  0.19549708  0.89945978    -0.02300
C912        C  0.73940647  0.18583970  0.92661852    -0.00600
C913        C  0.75760316  0.20248339  0.94310777    -0.04200
C914        C  0.76387503  0.22908649  0.93279110     0.02800
C915        C  0.72390542  0.23175317  0.85932327     0.09700
C916        C  0.70949829  0.17832794  0.88239673     0.35600
C917        C  0.78239486  0.24633708  0.94985521     0.39000
C918        C  0.74089335  0.23132038  0.83386490    -0.04600
C919        C  0.73145448  0.24188627  0.80625722     0.02600
C920        C  0.70433789  0.25212605  0.80351605    -0.04200
C921        C  0.68708777  0.25169951  0.82914813    -0.00400
C922        C  0.69706063  0.24202553  0.85694654    -0.02900
C923        C  0.76832075  0.22008580  0.83625798     0.36300
C924        C  0.65880223  0.26060945  0.82713768     0.39900
C925        C  0.75034982  0.24313583  0.78124850     0.39100
C926        C  0.67978827  0.24291232  0.88334662     0.36000
C927        C  0.75828177  0.26642682  0.89559797     0.36700
C928        C  0.73203289  0.15897099  0.93787453     0.39900
N929        N  0.76559159  0.24406263  0.76146061    -0.38200
N930        N  0.79015387  0.21107131  0.83825742    -0.39700
N931        N  0.63624838  0.26774258  0.82564350    -0.37500
N932        N  0.66605526  0.24366384  0.90442606    -0.39900
N933        N  0.69456122  0.16473615  0.86879956    -0.39700
N934        N  0.72602107  0.13758716  0.94693115    -0.37300
N935        N  0.79718179  0.26007263  0.96347795    -0.38300
N936        N  0.76291975  0.28843340  0.88738323    -0.40000
C937        C  0.88126057  0.85266519  0.98165615    -0.04900
C938        C  0.87735561  0.87622692  0.99946739     0.09200
C939        C  0.85307244  0.87912994  0.51618982    -0.02300
C940        C  0.83254866  0.85883745  0.51469540    -0.00600
C941        C  0.83639293  0.83514571  0.49688252    -0.04200
C942        C  0.86094139  0.83214603  0.98042905     0.02800
C943        C  0.89874162  0.89820750  0.50028970     0.09700
C944        C  0.84936585  0.90297913  0.53515788     0.35600
C945        C  0.86578857  0.80755500  0.96295405     0.39000
C946        C  0.89540176  0.92219896  0.98297632    -0.04600
C947        C  0.91555530  0.94288844  0.98356747     0.02600
C948        C  0.93958229  0.93942318  0.50093036    -0.04200
C949        C  0.94290553  0.91531947  0.51822468    -0.00400
C950        C  0.92242064  0.89493770  0.51811131    -0.02900
C951        C  0.87125810  0.92542082  0.96431093     0.36300
C952        C  0.96787327  0.91092442  0.53524267     0.39900
C953        C  0.91107811  0.96814571  0.96706744     0.39100
C954        C  0.92571088  0.87044530  0.53621051     0.36000
C955        C  0.90637820  0.84951212  0.96474630     0.36700
C956        C  0.80707925  0.86287548  0.53073453     0.39900
N957        N  0.90746603  0.98836161  0.95405764    -0.38200
N958        N  0.85199819  0.92789365  0.94939957    -0.39700
N959        N  0.98784518  0.90739966  0.54870895    -0.37500
N960        N  0.92827580  0.85087089  0.55060838    -0.39900
N961        N  0.84649688  0.92198256  0.55034600    -0.39700
N962        N  0.78672010  0.86612005  0.54343785    -0.37300
N963        N  0.86969276  0.78793534  0.94903012    -0.38300
N964        N  0.92650291  0.84703446  0.95141006    -0.40000
C965        C  0.59695218  0.57863764  0.77203706    -0.04900
C966        C  0.59943705  0.59517530  0.74631486     0.09200
C967        C  0.58225157  0.59053234  0.72143504    -0.02300
C968        C  0.56218516  0.56975444  0.72242231    -0.00600
C969        C  0.55954059  0.55285356  0.74827423    -0.04200
C970        C  0.57758135  0.55726250  0.77288137     0.02800
C971        C  0.62039948  0.61747502  0.74551006     0.09700
C972        C  0.58522703  0.60734008  0.69477228     0.35600
C973        C  0.57706118  0.53949198  0.79898437     0.39000
C974        C  0.64827552  0.61091660  0.74141562    -0.04600
C975        C  0.66817962  0.63179035  0.74181165     0.02600
C976        C  0.66026221  0.65933061  0.74593433    -0.04200
C977        C  0.63242189  0.66593013  0.75000719    -0.00400
C978        C  0.61251085  0.64503363  0.74980285    -0.02900
C979        C  0.65642561  0.58262587  0.73693735     0.36300
C980        C  0.62426520  0.69423683  0.75426519     0.39900
C981        C  0.69689885  0.62486508  0.73877296     0.39100
C982        C  0.58389846  0.65180097  0.75416059     0.36000
C983        C  0.61434352  0.58385731  0.79785919     0.36700
C984        C  0.54402833  0.56652077  0.69686000     0.39900
N985        N  0.71981756  0.61927940  0.73657548    -0.38200
N986        N  0.66286375  0.56002503  0.73347108    -0.39700
N987        N  0.61769052  0.71680888  0.75764180    -0.37500
N988        N  0.56103955  0.65713797  0.75751175    -0.39900
N989        N  0.58760407  0.62079447  0.67356147    -0.39700
N990        N  0.52965521  0.56405123  0.67636538    -0.37300
N991        N  0.57679558  0.52536601  0.81983897    -0.38300
N992        N  0.62822153  0.58811098  0.81840023    -0.40000
C993        C  0.71464305  0.73995424  0.85132626    -0.04900
C994        C  0.74315926  0.74208562  0.85544894     0.09200
C995        C  0.76094918  0.73415138  0.83219076    -0.02300
C996        C  0.75031386  0.72416290  0.80483988    -0.00600
C997        C  0.72166454  0.72210525  0.80046733    -0.04200
C998        C  0.70388754  0.73000008  0.82400249     0.02800
C999        C  0.75452643  0.75265339  0.88443945     0.09700
C1000       C  0.79029545  0.73610872  0.83660157     0.35600
C1001       C  0.67446090  0.72853791  0.82010345     0.39000
C1002       C  0.76217637  0.73422651  0.90733464    -0.04600
C1003       C  0.77315895  0.74412428  0.93455753     0.02600
C1004       C  0.77622833  0.77267460  0.93928008    -0.04200
C1005       C  0.76841408  0.79109913  0.91621528    -0.00400
C1006       C  0.75766250  0.78107404  0.88893076    -0.02900
C1007       C  0.75851378  0.70501328  0.90285860     0.36300
C1008       C  0.77046523  0.82046372  0.92079022     0.39900
C1009       C  0.78202547  0.72475830  0.95730019     0.39100
C1010       C  0.74944918  0.80000277  0.86547647     0.36000
C1011       C  0.69639428  0.74804987  0.87535873     0.36700
C1012       C  0.76901531  0.71499168  0.78170884     0.39900
N1013       N  0.78912252  0.70930864  0.97542592    -0.38200
N1014       N  0.75549040  0.68172579  0.89926196    -0.39700
N1015       N  0.77210842  0.84389089  0.92440611    -0.37500
N1016       N  0.74279605  0.81504104  0.84675043    -0.39900
N1017       N  0.81369560  0.73765047  0.84021807    -0.39700
N1018       N  0.78392234  0.70763621  0.76326668    -0.37300
N1019       N  0.65094212  0.72741103  0.81736143    -0.38300
N1020       N  0.68192049  0.75454499  0.89458320    -0.40000
C1021       C  0.78124298  0.75772309  0.60272881    -0.04900
C1022       C  0.75348672  0.75020675  0.60481657     0.09200
C1023       C  0.73630578  0.75288837  0.57955943    -0.02300
C1024       C  0.74653351  0.76398575  0.55257884    -0.00600
C1025       C  0.77449716  0.77156527  0.55023208    -0.04200
C1026       C  0.79184249  0.76798740  0.57553638     0.02800
C1027       C  0.74223066  0.73983868  0.63390386     0.09700
C1028       C  0.70799549  0.74413763  0.58142313     0.35600
C1029       C  0.82086805  0.77395238  0.57360156     0.39000
C1030       C  0.73444955  0.75848747  0.65647477    -0.04600
C1031       C  0.72422436  0.74884376  0.68410659     0.02600
C1032       C  0.72149754  0.72034187  0.68935098    -0.04200
C1033       C  0.72891975  0.70170705  0.66636065    -0.00400
C1034       C  0.73937420  0.71146370  0.63887049    -0.02900
C1035       C  0.73665463  0.78770629  0.65098707     0.36300
C1036       C  0.72642379  0.67239223  0.67094727     0.39900
C1037       C  0.71553242  0.76842347  0.70663194     0.39100
C1038       C  0.74735769  0.69230532  0.61560024     0.36000
C1039       C  0.79896965  0.75461577  0.62866779     0.36700
C1040       C  0.72779397  0.76849807  0.52776199     0.39900
N1041       N  0.70858070  0.78404924  0.72458332    -0.38200
N1042       N  0.73839559  0.81099609  0.64648954    -0.39700
N1043       N  0.72440134  0.64895227  0.67417142    -0.37500
N1044       N  0.75369918  0.67707205  0.59698712    -0.39900
N1045       N  0.68550137  0.73689172  0.58288809    -0.39700
N1046       N  0.71277093  0.77212164  0.50804153    -0.37300
N1047       N  0.84402476  0.77868181  0.57211602    -0.38300
N1048       N  0.81304732  0.75217057  0.64940700    -0.40000
loop_ 
_geom_bond_atom_site_label_1 
_geom_bond_atom_site_label_2 
_geom_bond_distance 
_geom_bond_site_symmetry_2 
_ccdc_geom_bond_type 
C1            N2   1.357       .  A
C1            N6   1.357       .  A
C1          C452   1.476       .  S
N2            C3   1.358       .  A
C3            N4   1.361       .  A
C3          C508   1.493       .  S
N4            C5   1.361       .  A
C5            N6   1.359       .  A
C5          C473   1.493       .  S
C7            N8   1.359   1_556  A
C7          N536   1.359       .  A
C7          C417   1.490       .  S
N8            C9   1.359       .  A
C9           N10   1.359   1_554  A
C9          C501   1.498       .  S
N10         C535   1.359       .  A
C11          N12   1.360       .  A
C11         N534   1.359       .  A
C11         C480   1.492       .  S
N12         C531   1.359       .  A
C13          N14   1.358       .  A
C13          N18   1.359       .  A
C13         C333   1.495       .  S
N14          C15   1.358       .  A
C15          N16   1.359       .  A
C15         C396   1.500       .  S
N16          C17   1.357       .  A
C17          N18   1.357       .  A
C17         C361   1.478       .  S
C19          N20   1.360       .  A
C19         N548   1.361       .  A
C19         C305   1.495       .  S
N20          C21   1.358       .  A
C21          N22   1.355       .  A
C21         C389   1.478       .  S
N22         C547   1.358       .  A
C23          N24   1.362       .  A
C23         N546   1.358   1_554  A
C23         C368   1.503       .  S
N24         C543   1.361   1_554  A
C25          N26   1.361       .  A
C25          N30   1.363       .  A
C25         C228   1.505       .  S
N26          C27   1.358       .  A
C27          N28   1.357       .  A
C27         C284   1.482       .  S
N28          C29   1.358       .  A
C29          N30   1.361       .  A
C29         C249   1.485       .  S
C31          N32   1.359       .  A
C31         N560   1.360       .  A
C31         C200   1.495       .  S
N32          C33   1.361       .  A
C33          N34   1.361       .  A
C33         C277   1.502       .  S
N34         C559   1.361       .  A
C35          N36   1.361       .  A
C35         N558   1.361   1_554  A
C35         C256   1.499       .  S
N36         C555   1.360   1_554  A
O37          V45   1.900       .  S
O37         C571   1.265       .  A
O38          V45   1.903   1_445  S
O38         C572   1.266       .  A
O39          V45   1.909   1_455  S
O39          C49   1.267       .  A
O40          V45   1.909   1_545  S
O40          C50   1.267       .  A
O41          V46   1.901   1_545  S
O41         C574   1.265       .  A
O42          V46   1.903   1_455  S
O42         C573   1.265   1_554  A
O43          V46   1.901   1_445  S
O43          C48   1.266   1_554  A
O44          V46   1.902       .  S
O44          C47   1.265       .  A
V45         V570   2.082       .  T
V46         V569   2.082   1_554  T
C47         C424   1.488       .  S
C47         O561   1.265   1_554  A
C48         C172   1.512       .  S
C48         O562   1.266       .  A
C49         C193   1.497       .  S
C49         O566   1.265       .  A
C50         C312   1.497       .  S
C50         O565   1.265       .  A
O51          V59   1.899       .  S
O51          C61   1.264       .  A
O52          V59   1.896       .  S
O52          C62   1.263       .  A
O53          V59   1.898       .  S
O53          C63   1.264       .  A
O54          V59   1.897       .  S
O54          C64   1.265       .  A
O55          V60   1.899       .  S
O55          C64   1.265       .  A
O56          V60   1.896       .  S
O56          C63   1.264       .  A
O57          V60   1.900       .  S
O57          C62   1.264       .  A
O58          V60   1.896       .  S
O58          C61   1.263       .  A
V59          V60   2.087       .  T
C61         C340   1.482       .  S
C62         C221   1.480       .  S
C63         C137   1.479       .  S
C64         C445   1.501       .  S
C65          N66   1.357       .  A
C65         N594   1.361       .  A
C65         C689   1.482       .  S
N66          C67   1.357       .  A
C67          N68   1.356       .  A
C67          C81   1.480       .  S
N68         C593   1.358       .  A
C69          N70   1.362       .  A
C69         N592   1.358       .  A
C69         C109   1.488       .  S
N70         C589   1.361       .  A
C71          N72   1.359       .  A
C71          N76   1.356       .  A
C71         C144   1.489       .  S
N72          C73   1.360       .  A
C73          N74   1.360       .  A
C73         C116   1.494       .  S
N74          C75   1.360       .  A
C75          N76   1.357       .  A
C75          C88   1.499       .  S
C77          C78   1.410       .  A
C77          C82   1.410       .  A
C77          C95   1.450       .  S
C78          C83   1.494       .  S
C78          C79   1.411       .  A
C79          C80   1.410       .  A
C79          C84   1.450       .  S
C80          C81   1.413       .  A
C80          C96   1.451       .  S
C81          C82   1.413       .  A
C82          C85   1.451       .  S
C83          C86   1.407       .  A
C83          C90   1.408       .  A
C84         N101   1.157       .  T
C85         N103   1.157       .  T
C86          C87   1.411       .  A
C86          C91   1.452       .  S
C87          C88   1.423       .  A
C87          C93   1.452       .  S
C88          C89   1.421       .  A
C89          C90   1.411       .  A
C89          C92   1.451       .  S
C90          C94   1.451       .  S
C91          N98   1.157       .  T
C92          N99   1.158       .  T
C93          N97   1.158       .  T
C94         N100   1.157       .  T
C95         N104   1.157       .  T
C96         N102   1.157       .  T
C105        C106   1.411       .  A
C105        C110   1.412       .  A
C105        C123   1.450       .  S
C106        C111   1.498       .  S
C106        C107   1.410       .  A
C107        C108   1.411       .  A
C107        C112   1.451       .  S
C108        C109   1.416       .  A
C108        C124   1.451       .  S
C109        C110   1.414       .  A
C110        C113   1.450       .  S
C111        C114   1.410       .  A
C111        C118   1.410       .  A
C112        N129   1.157       .  T
C113        N131   1.157       .  T
C114        C115   1.412       .  A
C114        C119   1.451       .  S
C115        C116   1.418       .  A
C115        C121   1.451       .  S
C116        C117   1.418       .  A
C117        C118   1.412       .  A
C117        C120   1.451       .  S
C118        C122   1.451       .  S
C119        N126   1.157       .  T
C120        N127   1.157       .  T
C121        N125   1.157       .  T
C122        N128   1.157       .  T
C123        N132   1.157       .  T
C124        N130   1.157       .  T
C133        C134   1.410       .  A
C133        C138   1.408       .  A
C133        C151   1.451       .  S
C134        C139   1.493       .  S
C134        C135   1.411       .  A
C135        C136   1.410       .  A
C135        C140   1.450       .  S
C136        C137   1.413       .  A
C136        C152   1.451       .  S
C137        C138   1.413       .  A
C138        C141   1.452       .  S
C139        C142   1.409       .  A
C139        C146   1.410       .  A
C140        N157   1.157       .  T
C141        N159   1.157       .  T
C142        C143   1.410       .  A
C142        C147   1.451       .  S
C143        C144   1.418       .  A
C143        C149   1.451       .  S
C144        C145   1.417       .  A
C145        C146   1.410       .  A
C145        C148   1.451       .  S
C146        C150   1.451       .  S
C147        N154   1.157       .  T
C148        N155   1.157       .  T
C149        N153   1.157       .  T
C150        N156   1.157       .  T
C151        N160   1.157       .  T
C152        N158   1.157       .  T
C161        C162   1.412   1_554  A
C161        C166   1.411       .  A
C161        C179   1.450       .  S
C162        C167   1.500       .  S
C162        C687   1.412       .  A
C163        C164   1.412       .  A
C163        C686   1.412       .  A
C163        C168   1.450       .  S
C164        C689   1.412       .  A
C164        C180   1.450       .  S
C165        C589   1.482       .  S
C165        C166   1.411       .  A
C165        C688   1.412   1_554  A
C166        C169   1.450       .  S
C167        C174   1.407   1_556  A
C167        C694   1.407       .  A
C168        N185   1.157       .  T
C169        N187   1.157       .  T
C170        C171   1.415       .  A
C170        C691   1.407       .  A
C170        C175   1.452       .  S
C171        C696   1.427       .  A
C171        C177   1.451       .  S
C172        C173   1.426   1_556  A
C172        C695   1.427       .  A
C173        C174   1.412       .  A
C173        C176   1.451       .  S
C174        C178   1.452       .  S
C175        N182   1.157       .  T
C176        N183   1.158       .  T
C177        N181   1.158       .  T
C178        N184   1.157       .  T
C179        N188   1.157       .  T
C180        N186   1.157       .  T
C189        C190   1.411       .  A
C189        C194   1.415       .  A
C189        C207   1.450       .  S
C190        C719   1.504       .  S
C190        C715   1.411       .  A
C191        C192   1.413       .  A
C191        C714   1.411       .  A
C191        C196   1.451       .  S
C192        C717   1.417   1_554  A
C192        C208   1.451       .  S
C193        C194   1.418       .  A
C193        C716   1.417       .  A
C194        C197   1.451       .  S
C195        C714   1.504   1_556  S
C195        C198   1.411       .  A
C195        C726   1.412   1_556  A
C196        N213   1.157       .  T
C197        N215   1.157       .  T
C198        C199   1.413       .  A
C198        C203   1.451       .  S
C199        C724   1.416       .  A
C199        C205   1.451       .  S
C200        C201   1.417       .  A
C200        C723   1.416       .  A
C201        C202   1.415       .  A
C201        C204   1.451       .  S
C202        C719   1.412       .  A
C202        C206   1.450       .  S
C203        N210   1.157       .  T
C204        N211   1.157       .  T
C205        N209   1.157       .  T
C206        N212   1.157       .  T
C207        N216   1.157       .  T
C208        N214   1.157       .  T
C217        C218   1.411       .  A
C217        C222   1.410       .  A
C217        C235   1.450       .  S
C218        C223   1.495       .  S
C218        C219   1.411       .  A
C219        C220   1.411       .  A
C219        C224   1.450       .  S
C220        C221   1.413       .  A
C220        C236   1.452       .  S
C221        C222   1.413       .  A
C222        C225   1.451       .  S
C223        C226   1.406       .  A
C223        C230   1.406       .  A
C224        N241   1.157       .  T
C225        N243   1.157       .  T
C226        C227   1.412       .  A
C226        C231   1.452       .  S
C227        C228   1.424       .  A
C227        C233   1.450       .  S
C228        C229   1.423       .  A
C229        C230   1.413       .  A
C229        C232   1.449       .  S
C230        C234   1.452       .  S
C231        N238   1.157       .  T
C232        N239   1.157       .  T
C233        N237   1.157       .  T
C234        N240   1.157       .  T
C235        N244   1.157       .  T
C236        N242   1.157       .  T
C245        C246   1.413       .  A
C245        C250   1.412       .  A
C245        C263   1.450       .  S
C246        C251   1.503       .  S
C246        C247   1.413       .  A
C247        C248   1.414       .  A
C247        C252   1.450       .  S
C248        C249   1.413       .  A
C248        C264   1.451       .  S
C249        C250   1.411       .  A
C250        C253   1.450       .  S
C251        C254   1.411       .  A
C251        C258   1.411       .  A
C252        N269   1.157       .  T
C253        N271   1.157       .  T
C254        C255   1.414       .  A
C254        C259   1.451       .  S
C255        C256   1.419       .  A
C255        C261   1.451       .  S
C256        C257   1.419       .  A
C257        C258   1.413       .  A
C257        C260   1.451       .  S
C258        C262   1.451       .  S
C259        N266   1.157       .  T
C260        N267   1.157       .  T
C261        N265   1.157       .  T
C262        N268   1.157       .  T
C263        N272   1.157       .  T
C264        N270   1.157       .  T
C273        C274   1.410       .  A
C273        C278   1.412       .  A
C273        C291   1.452       .  S
C274        C279   1.503       .  S
C274        C275   1.411       .  A
C275        C276   1.414       .  A
C275        C280   1.451       .  S
C276        C277   1.421       .  A
C276        C292   1.451       .  S
C277        C278   1.420       .  A
C278        C281   1.451       .  S
C279        C282   1.414       .  A
C279        C286   1.413       .  A
C280        N297   1.157       .  T
C281        N299   1.157       .  T
C282        C283   1.413       .  A
C282        C287   1.450       .  S
C283        C284   1.411       .  A
C283        C289   1.451       .  S
C284        C285   1.411       .  A
C285        C286   1.411       .  A
C285        C288   1.450       .  S
C286        C290   1.450       .  S
C287        N294   1.157       .  T
C288        N295   1.157       .  T
C289        N293   1.157       .  T
C290        N296   1.157       .  T
C291        N300   1.157       .  T
C292        N298   1.157       .  T
C301        C302   1.411       .  A
C301        C306   1.415       .  A
C301        C319   1.450       .  S
C302        C831   1.501       .  S
C302        C827   1.410   1_554  A
C303        C304   1.412       .  A
C303        C826   1.410       .  A
C303        C308   1.451       .  S
C304        C305   1.417       .  A
C304        C320   1.450       .  S
C305        C830   1.417       .  A
C306        C829   1.417   1_554  A
C306        C309   1.451       .  S
C307        C826   1.501       .  S
C307        C310   1.410       .  A
C307        C838   1.410       .  A
C308        N325   1.157       .  T
C309        N327   1.157       .  T
C310        C311   1.413       .  A
C310        C315   1.451       .  S
C311        C312   1.418       .  A
C311        C317   1.451       .  S
C312        C837   1.418       .  A
C313        C314   1.415       .  A
C313        C836   1.418   1_556  A
C313        C316   1.450       .  S
C314        C831   1.410   1_556  A
C314        C318   1.450       .  S
C315        N322   1.157       .  T
C316        N323   1.157       .  T
C317        N321   1.157       .  T
C318        N324   1.157       .  T
C319        N328   1.157       .  T
C320        N326   1.157       .  T
C329        C330   1.408       .  A
C329        C334   1.411       .  A
C329        C347   1.451       .  S
C330        C335   1.494       .  S
C330        C331   1.407       .  A
C331        C332   1.410       .  A
C331        C336   1.452       .  S
C332        C333   1.421       .  A
C332        C348   1.452       .  S
C333        C334   1.420       .  A
C334        C337   1.451       .  S
C335        C338   1.410       .  A
C335        C342   1.410       .  A
C336        N353   1.157       .  T
C337        N355   1.157       .  T
C338        C339   1.410       .  A
C338        C343   1.451       .  S
C339        C340   1.415       .  A
C339        C345   1.452       .  S
C340        C341   1.413       .  A
C341        C342   1.409       .  A
C341        C344   1.451       .  S
C342        C346   1.451       .  S
C343        N350   1.157       .  T
C344        N351   1.157       .  T
C345        N349   1.157       .  T
C346        N352   1.157       .  T
C347        N356   1.157       .  T
C348        N354   1.157       .  T
C357        C358   1.412       .  A
C357        C362   1.411       .  A
C357        C375   1.450       .  S
C358        C363   1.497       .  S
C358        C359   1.412       .  A
C359        C360   1.410       .  A
C359        C364   1.451       .  S
C360        C361   1.411       .  A
C360        C376   1.451       .  S
C361        C362   1.411       .  A
C362        C365   1.450       .  S
C363        C366   1.407       .  A
C363        C370   1.408       .  A
C364        N381   1.157       .  T
C365        N383   1.157       .  T
C366        C367   1.411       .  A
C366        C371   1.452       .  S
C367        C368   1.425       .  A
C367        C373   1.451       .  S
C368        C369   1.422       .  A
C369        C370   1.413       .  A
C369        C372   1.452       .  S
C370        C374   1.451       .  S
C371        N378   1.157       .  T
C372        N379   1.157       .  T
C373        N377   1.158       .  T
C374        N380   1.158       .  T
C375        N384   1.157       .  T
C376        N382   1.157       .  T
C385        C386   1.412       .  A
C385        C390   1.410       .  A
C385        C403   1.451       .  S
C386        C391   1.497       .  S
C386        C387   1.412       .  A
C387        C388   1.411       .  A
C387        C392   1.450       .  S
C388        C389   1.410       .  A
C388        C404   1.450       .  S
C389        C390   1.411       .  A
C390        C393   1.451       .  S
C391        C394   1.409       .  A
C391        C398   1.408       .  A
C392        N409   1.157       .  T
C393        N411   1.157       .  T
C394        C395   1.411       .  A
C394        C399   1.452       .  S
C395        C396   1.421       .  A
C395        C401   1.451       .  S
C396        C397   1.422       .  A
C397        C398   1.412       .  A
C397        C400   1.452       .  S
C398        C402   1.451       .  S
C399        N406   1.157       .  T
C400        N407   1.158       .  T
C401        N405   1.157       .  T
C402        N408   1.157       .  T
C403        N412   1.157       .  T
C404        N410   1.157       .  T
C413        C414   1.411       .  A
C413        C418   1.412       .  A
C413        C431   1.451       .  S
C414        C943   1.499       .  S
C414        C939   1.411       .  A
C415        C416   1.412       .  A
C415        C938   1.411   1_554  A
C415        C420   1.451       .  S
C416        C417   1.416   1_554  A
C416        C432   1.451       .  S
C417        C942   1.416       .  A
C418        C941   1.416       .  A
C418        C421   1.451       .  S
C419        C938   1.499   1_554  S
C419        C426   1.411       .  A
C419        C946   1.411   1_554  A
C420        N437   1.157       .  T
C421        N439   1.157       .  T
C422        C423   1.411       .  A
C422        C943   1.411       .  A
C422        C427   1.451       .  S
C423        C948   1.415       .  A
C423        C429   1.451       .  S
C424        C425   1.415       .  A
C424        C947   1.415   1_554  A
C425        C426   1.412       .  A
C425        C428   1.451       .  S
C426        C430   1.450       .  S
C427        N434   1.157       .  T
C428        N435   1.157       .  T
C429        N433   1.157       .  T
C430        N436   1.157       .  T
C431        N440   1.157       .  T
C432        N438   1.157       .  T
C441        C442   1.408       .  A
C441        C446   1.410       .  A
C441        C459   1.452       .  S
C442        C447   1.496       .  S
C442        C443   1.408       .  A
C443        C444   1.412       .  A
C443        C448   1.452       .  S
C444        C445   1.423       .  A
C444        C460   1.451       .  S
C445        C446   1.422       .  A
C446        C449   1.452       .  S
C447        C450   1.412       .  A
C447        C454   1.412       .  A
C448        N465   1.157       .  T
C449        N467   1.157       .  T
C450        C451   1.409       .  A
C450        C455   1.451       .  S
C451        C452   1.411       .  A
C451        C457   1.450       .  S
C452        C453   1.411       .  A
C453        C454   1.410       .  A
C453        C456   1.450       .  S
C454        C458   1.450       .  S
C455        N462   1.157       .  T
C456        N463   1.157       .  T
C457        N461   1.157       .  T
C458        N464   1.157       .  T
C459        N468   1.157       .  T
C460        N466   1.158       .  T
C469        C470   1.409       .  A
C469        C474   1.412       .  A
C469        C487   1.451       .  S
C470        C475   1.498       .  S
C470        C471   1.410       .  A
C471        C472   1.412       .  A
C471        C476   1.451       .  S
C472        C473   1.417       .  A
C472        C488   1.451       .  S
C473        C474   1.418       .  A
C474        C477   1.450       .  S
C475        C478   1.410       .  A
C475        C482   1.410       .  A
C476        N493   1.157       .  T
C477        N495   1.157       .  T
C478        C479   1.412       .  A
C478        C483   1.451       .  S
C479        C480   1.417       .  A
C479        C485   1.451       .  S
C480        C481   1.417       .  A
C481        C482   1.412       .  A
C481        C484   1.451       .  S
C482        C486   1.451       .  S
C483        N490   1.157       .  T
C484        N491   1.157       .  T
C485        N489   1.157       .  T
C486        N492   1.157       .  T
C487        N496   1.157       .  T
C488        N494   1.157       .  T
C497        C498   1.409       .  A
C497        C502   1.412       .  A
C497        C515   1.451       .  S
C498        C503   1.498       .  S
C498        C499   1.409       .  A
C499        C500   1.412       .  A
C499        C504   1.451       .  S
C500        C501   1.420       .  A
C500        C516   1.451       .  S
C501        C502   1.420       .  A
C502        C505   1.451       .  S
C503        C506   1.410       .  A
C503        C510   1.409       .  A
C504        N521   1.157       .  T
C505        N523   1.157       .  T
C506        C507   1.412       .  A
C506        C511   1.451       .  S
C507        C508   1.417       .  A
C507        C513   1.451       .  S
C508        C509   1.418       .  A
C509        C510   1.412       .  A
C509        C512   1.450       .  S
C510        C514   1.451       .  S
C511        N518   1.157       .  T
C512        N519   1.157       .  T
C513        N517   1.157       .  T
C514        N520   1.157       .  T
C515        N524   1.157       .  T
C516        N522   1.158       .  T
C525        N526   1.357       .  A
C525        N530   1.357       .  A
C525        C976   1.476       .  S
N526        C527   1.358       .  A
C527        N528   1.361       .  A
C527       C1032   1.493       .  S
N528        C529   1.361       .  A
C529        N530   1.359       .  A
C529        C997   1.493       .  S
C531        N532   1.359       .  A
C531        C941   1.490       .  S
N532        C533   1.359       .  A
C533        N534   1.359       .  A
C533       C1025   1.498       .  S
C535        N536   1.360       .  A
C535       C1004   1.492       .  S
C537        N538   1.358       .  A
C537        N542   1.359       .  A
C537        C857   1.495       .  S
N538        C539   1.358       .  A
C539        N540   1.359       .  A
C539        C920   1.500       .  S
N540        C541   1.357       .  A
C541        N542   1.357       .  A
C541        C885   1.478       .  S
C543        N544   1.360       .  A
C543        C829   1.495       .  S
N544        C545   1.358       .  A
C545        N546   1.355       .  A
C545        C913   1.478       .  S
C547        N548   1.362       .  A
C547        C892   1.503       .  S
C549        N550   1.361       .  A
C549        N554   1.363       .  A
C549        C752   1.505       .  S
N550        C551   1.358       .  A
C551        N552   1.357       .  A
C551        C808   1.482       .  S
N552        C553   1.358       .  A
C553        N554   1.361       .  A
C553        C773   1.485       .  S
C555        N556   1.359       .  A
C555        C724   1.495       .  S
N556        C557   1.361       .  A
C557        N558   1.361       .  A
C557        C801   1.502       .  S
C559        N560   1.361       .  A
C559        C780   1.499       .  S
O561        V569   1.900       .  S
O562        V569   1.903   1_445  S
O563        V569   1.909   1_455  S
O563        C573   1.267       .  A
O564        V569   1.909   1_545  S
O564        C574   1.267   1_556  A
O565        V570   1.901   1_545  S
O566        V570   1.903   1_455  S
O567        V570   1.901   1_445  S
O567        C572   1.266       .  A
O568        V570   1.902       .  S
O568        C571   1.265       .  A
C571        C948   1.488       .  S
C572        C696   1.512       .  S
C573        C717   1.497       .  S
C574        C836   1.497       .  S
O575        V583   1.899       .  S
O575        C585   1.264       .  A
O576        V583   1.896       .  S
O576        C586   1.263       .  A
O577        V583   1.898       .  S
O577        C587   1.264       .  A
O578        V583   1.897       .  S
O578        C588   1.265       .  A
O579        V584   1.899       .  S
O579        C588   1.265       .  A
O580        V584   1.896       .  S
O580        C587   1.264       .  A
O581        V584   1.900       .  S
O581        C586   1.264       .  A
O582        V584   1.896       .  S
O582        C585   1.263       .  A
V583        V584   2.087       .  T
C585        C864   1.482       .  S
C586        C745   1.480       .  S
C587        C661   1.479       .  S
C588        C969   1.501       .  S
C589        N590   1.357   1_554  A
N590        C591   1.357       .  A
C591        N592   1.356   1_556  A
C591        C605   1.480       .  S
C593        N594   1.362       .  A
C593        C633   1.488       .  S
C595        N596   1.359       .  A
C595        N600   1.356       .  A
C595        C668   1.489       .  S
N596        C597   1.360       .  A
C597        N598   1.360       .  A
C597        C640   1.494       .  S
N598        C599   1.360       .  A
C599        N600   1.357       .  A
C599        C612   1.499       .  S
C601        C602   1.410       .  A
C601        C606   1.410       .  A
C601        C619   1.450       .  S
C602        C607   1.494       .  S
C602        C603   1.411       .  A
C603        C604   1.410       .  A
C603        C608   1.450       .  S
C604        C605   1.413       .  A
C604        C620   1.451       .  S
C605        C606   1.413       .  A
C606        C609   1.451       .  S
C607        C610   1.407       .  A
C607        C614   1.408       .  A
C608        N625   1.157       .  T
C609        N627   1.157       .  T
C610        C611   1.411       .  A
C610        C615   1.452       .  S
C611        C612   1.423       .  A
C611        C617   1.452       .  S
C612        C613   1.421       .  A
C613        C614   1.411       .  A
C613        C616   1.451       .  S
C614        C618   1.451       .  S
C615        N622   1.157       .  T
C616        N623   1.158       .  T
C617        N621   1.158       .  T
C618        N624   1.157       .  T
C619        N628   1.157       .  T
C620        N626   1.157       .  T
C629        C630   1.411       .  A
C629        C634   1.412       .  A
C629        C647   1.450       .  S
C630        C635   1.498       .  S
C630        C631   1.410       .  A
C631        C632   1.411       .  A
C631        C636   1.451       .  S
C632        C633   1.416       .  A
C632        C648   1.451       .  S
C633        C634   1.414       .  A
C634        C637   1.450       .  S
C635        C638   1.410       .  A
C635        C642   1.410       .  A
C636        N653   1.157       .  T
C637        N655   1.157       .  T
C638        C639   1.412       .  A
C638        C643   1.451       .  S
C639        C640   1.418       .  A
C639        C645   1.451       .  S
C640        C641   1.418       .  A
C641        C642   1.412       .  A
C641        C644   1.451       .  S
C642        C646   1.451       .  S
C643        N650   1.157       .  T
C644        N651   1.157       .  T
C645        N649   1.157       .  T
C646        N652   1.157       .  T
C647        N656   1.157       .  T
C648        N654   1.157       .  T
C657        C658   1.410       .  A
C657        C662   1.408       .  A
C657        C675   1.451       .  S
C658        C663   1.493       .  S
C658        C659   1.411       .  A
C659        C660   1.410       .  A
C659        C664   1.450       .  S
C660        C661   1.413       .  A
C660        C676   1.451       .  S
C661        C662   1.413       .  A
C662        C665   1.452       .  S
C663        C666   1.409       .  A
C663        C670   1.410       .  A
C664        N681   1.157       .  T
C665        N683   1.157       .  T
C666        C667   1.410       .  A
C666        C671   1.451       .  S
C667        C668   1.418       .  A
C667        C673   1.451       .  S
C668        C669   1.417       .  A
C669        C670   1.410       .  A
C669        C672   1.451       .  S
C670        C674   1.451       .  S
C671        N678   1.157       .  T
C672        N679   1.157       .  T
C673        N677   1.157       .  T
C674        N680   1.157       .  T
C675        N684   1.157       .  T
C676        N682   1.157       .  T
C685        C686   1.412       .  A
C685        C690   1.411       .  A
C685        C703   1.450       .  S
C686        C691   1.500       .  S
C687        C688   1.412       .  A
C687        C692   1.450       .  S
C688        C704   1.450       .  S
C689        C690   1.411       .  A
C690        C693   1.450       .  S
C691        C698   1.407       .  A
C692        N709   1.157       .  T
C693        N711   1.157       .  T
C694        C695   1.415       .  A
C694        C699   1.452       .  S
C695        C701   1.451       .  S
C696        C697   1.426       .  A
C697        C698   1.412       .  A
C697        C700   1.451       .  S
C698        C702   1.452       .  S
C699        N706   1.157       .  T
C700        N707   1.158       .  T
C701        N705   1.158       .  T
C702        N708   1.157       .  T
C703        N712   1.157       .  T
C704        N710   1.157       .  T
C713        C714   1.411   1_556  A
C713        C718   1.415       .  A
C713        C731   1.450       .  S
C715        C716   1.413       .  A
C715        C720   1.451       .  S
C716        C732   1.451       .  S
C717        C718   1.418       .  A
C718        C721   1.451       .  S
C719        C722   1.411       .  A
C720        N737   1.157       .  T
C721        N739   1.157       .  T
C722        C723   1.413       .  A
C722        C727   1.451       .  S
C723        C729   1.451       .  S
C724        C725   1.417   1_556  A
C725        C726   1.415       .  A
C725        C728   1.451       .  S
C726        C730   1.450       .  S
C727        N734   1.157       .  T
C728        N735   1.157       .  T
C729        N733   1.157       .  T
C730        N736   1.157       .  T
C731        N740   1.157       .  T
C732        N738   1.157       .  T
C741        C742   1.411       .  A
C741        C746   1.410       .  A
C741        C759   1.450       .  S
C742        C747   1.495       .  S
C742        C743   1.411       .  A
C743        C744   1.411       .  A
C743        C748   1.450       .  S
C744        C745   1.413       .  A
C744        C760   1.452       .  S
C745        C746   1.413       .  A
C746        C749   1.451       .  S
C747        C750   1.406       .  A
C747        C754   1.406       .  A
C748        N765   1.157       .  T
C749        N767   1.157       .  T
C750        C751   1.412       .  A
C750        C755   1.452       .  S
C751        C752   1.424       .  A
C751        C757   1.450       .  S
C752        C753   1.423       .  A
C753        C754   1.413       .  A
C753        C756   1.449       .  S
C754        C758   1.452       .  S
C755        N762   1.157       .  T
C756        N763   1.157       .  T
C757        N761   1.157       .  T
C758        N764   1.157       .  T
C759        N768   1.157       .  T
C760        N766   1.157       .  T
C769        C770   1.413       .  A
C769        C774   1.412       .  A
C769        C787   1.450       .  S
C770        C775   1.503       .  S
C770        C771   1.413       .  A
C771        C772   1.414       .  A
C771        C776   1.450       .  S
C772        C773   1.413       .  A
C772        C788   1.451       .  S
C773        C774   1.411       .  A
C774        C777   1.450       .  S
C775        C778   1.411       .  A
C775        C782   1.411       .  A
C776        N793   1.157       .  T
C777        N795   1.157       .  T
C778        C779   1.414       .  A
C778        C783   1.451       .  S
C779        C780   1.419       .  A
C779        C785   1.451       .  S
C780        C781   1.419       .  A
C781        C782   1.413       .  A
C781        C784   1.451       .  S
C782        C786   1.451       .  S
C783        N790   1.157       .  T
C784        N791   1.157       .  T
C785        N789   1.157       .  T
C786        N792   1.157       .  T
C787        N796   1.157       .  T
C788        N794   1.157       .  T
C797        C798   1.410       .  A
C797        C802   1.412       .  A
C797        C815   1.452       .  S
C798        C803   1.503       .  S
C798        C799   1.411       .  A
C799        C800   1.414       .  A
C799        C804   1.451       .  S
C800        C801   1.421       .  A
C800        C816   1.451       .  S
C801        C802   1.420       .  A
C802        C805   1.451       .  S
C803        C806   1.414       .  A
C803        C810   1.413       .  A
C804        N821   1.157       .  T
C805        N823   1.157       .  T
C806        C807   1.413       .  A
C806        C811   1.450       .  S
C807        C808   1.411       .  A
C807        C813   1.451       .  S
C808        C809   1.411       .  A
C809        C810   1.411       .  A
C809        C812   1.450       .  S
C810        C814   1.450       .  S
C811        N818   1.157       .  T
C812        N819   1.157       .  T
C813        N817   1.157       .  T
C814        N820   1.157       .  T
C815        N824   1.157       .  T
C816        N822   1.157       .  T
C825        C826   1.411       .  A
C825        C830   1.415       .  A
C825        C843   1.450       .  S
C827        C828   1.412       .  A
C827        C832   1.451       .  S
C828        C829   1.417       .  A
C828        C844   1.450       .  S
C830        C833   1.451       .  S
C831        C834   1.410       .  A
C832        N849   1.157       .  T
C833        N851   1.157       .  T
C834        C835   1.413       .  A
C834        C839   1.451       .  S
C835        C836   1.418       .  A
C835        C841   1.451       .  S
C837        C838   1.415       .  A
C837        C840   1.450       .  S
C838        C842   1.450       .  S
C839        N846   1.157       .  T
C840        N847   1.157       .  T
C841        N845   1.157       .  T
C842        N848   1.157       .  T
C843        N852   1.157       .  T
C844        N850   1.157       .  T
C853        C854   1.408       .  A
C853        C858   1.411       .  A
C853        C871   1.451       .  S
C854        C859   1.494       .  S
C854        C855   1.407       .  A
C855        C856   1.410       .  A
C855        C860   1.452       .  S
C856        C857   1.421       .  A
C856        C872   1.452       .  S
C857        C858   1.420       .  A
C858        C861   1.451       .  S
C859        C862   1.410       .  A
C859        C866   1.410       .  A
C860        N877   1.157       .  T
C861        N879   1.157       .  T
C862        C863   1.410       .  A
C862        C867   1.451       .  S
C863        C864   1.415       .  A
C863        C869   1.452       .  S
C864        C865   1.413       .  A
C865        C866   1.409       .  A
C865        C868   1.451       .  S
C866        C870   1.451       .  S
C867        N874   1.157       .  T
C868        N875   1.157       .  T
C869        N873   1.157       .  T
C870        N876   1.157       .  T
C871        N880   1.157       .  T
C872        N878   1.157       .  T
C881        C882   1.412       .  A
C881        C886   1.411       .  A
C881        C899   1.450       .  S
C882        C887   1.497       .  S
C882        C883   1.412       .  A
C883        C884   1.410       .  A
C883        C888   1.451       .  S
C884        C885   1.411       .  A
C884        C900   1.451       .  S
C885        C886   1.411       .  A
C886        C889   1.450       .  S
C887        C890   1.407       .  A
C887        C894   1.408       .  A
C888        N905   1.157       .  T
C889        N907   1.157       .  T
C890        C891   1.411       .  A
C890        C895   1.452       .  S
C891        C892   1.425       .  A
C891        C897   1.451       .  S
C892        C893   1.422       .  A
C893        C894   1.413       .  A
C893        C896   1.452       .  S
C894        C898   1.451       .  S
C895        N902   1.157       .  T
C896        N903   1.157       .  T
C897        N901   1.158       .  T
C898        N904   1.158       .  T
C899        N908   1.157       .  T
C900        N906   1.157       .  T
C909        C910   1.412       .  A
C909        C914   1.410       .  A
C909        C927   1.451       .  S
C910        C915   1.497       .  S
C910        C911   1.412       .  A
C911        C912   1.411       .  A
C911        C916   1.450       .  S
C912        C913   1.410       .  A
C912        C928   1.450       .  S
C913        C914   1.411       .  A
C914        C917   1.451       .  S
C915        C918   1.409       .  A
C915        C922   1.408       .  A
C916        N933   1.157       .  T
C917        N935   1.157       .  T
C918        C919   1.411       .  A
C918        C923   1.452       .  S
C919        C920   1.421       .  A
C919        C925   1.451       .  S
C920        C921   1.422       .  A
C921        C922   1.412       .  A
C921        C924   1.452       .  S
C922        C926   1.451       .  S
C923        N930   1.157       .  T
C924        N931   1.158       .  T
C925        N929   1.157       .  T
C926        N932   1.157       .  T
C927        N936   1.157       .  T
C928        N934   1.157       .  T
C937        C938   1.411       .  A
C937        C942   1.412       .  A
C937        C955   1.451       .  S
C939        C940   1.412       .  A
C939        C944   1.451       .  S
C940        C941   1.416       .  A
C940        C956   1.451       .  S
C942        C945   1.451       .  S
C943        C950   1.411       .  A
C944        N961   1.157       .  T
C945        N963   1.157       .  T
C946        C947   1.411       .  A
C946        C951   1.451       .  S
C947        C953   1.451       .  S
C948        C949   1.415       .  A
C949        C950   1.412       .  A
C949        C952   1.451       .  S
C950        C954   1.450       .  S
C951        N958   1.157       .  T
C952        N959   1.157       .  T
C953        N957   1.157       .  T
C954        N960   1.157       .  T
C955        N964   1.157       .  T
C956        N962   1.157       .  T
C965        C966   1.408       .  A
C965        C970   1.410       .  A
C965        C983   1.452       .  S
C966        C971   1.496       .  S
C966        C967   1.408       .  A
C967        C968   1.412       .  A
C967        C972   1.452       .  S
C968        C969   1.423       .  A
C968        C984   1.451       .  S
C969        C970   1.422       .  A
C970        C973   1.452       .  S
C971        C974   1.412       .  A
C971        C978   1.412       .  A
C972        N989   1.157       .  T
C973        N991   1.157       .  T
C974        C975   1.409       .  A
C974        C979   1.451       .  S
C975        C976   1.411       .  A
C975        C981   1.450       .  S
C976        C977   1.411       .  A
C977        C978   1.410       .  A
C977        C980   1.450       .  S
C978        C982   1.451       .  S
C979        N986   1.157       .  T
C980        N987   1.157       .  T
C981        N985   1.157       .  T
C982        N988   1.157       .  T
C983        N992   1.157       .  T
C984        N990   1.158       .  T
C993        C994   1.409       .  A
C993        C998   1.412       .  A
C993       C1011   1.451       .  S
C994        C999   1.498       .  S
C994        C995   1.410       .  A
C995        C996   1.412       .  A
C995       C1000   1.451       .  S
C996        C997   1.417       .  A
C996       C1012   1.451       .  S
C997        C998   1.418       .  A
C998       C1001   1.450       .  S
C999       C1002   1.410       .  A
C999       C1006   1.410       .  A
C1000      N1017   1.157       .  T
C1001      N1019   1.157       .  T
C1002      C1003   1.412       .  A
C1002      C1007   1.451       .  S
C1003      C1004   1.417       .  A
C1003      C1009   1.451       .  S
C1004      C1005   1.417       .  A
C1005      C1006   1.412       .  A
C1005      C1008   1.451       .  S
C1006      C1010   1.451       .  S
C1007      N1014   1.157       .  T
C1008      N1015   1.157       .  T
C1009      N1013   1.157       .  T
C1010      N1016   1.157       .  T
C1011      N1020   1.157       .  T
C1012      N1018   1.157       .  T
C1021      C1022   1.409       .  A
C1021      C1026   1.412       .  A
C1021      C1039   1.451       .  S
C1022      C1027   1.498       .  S
C1022      C1023   1.409       .  A
C1023      C1024   1.412       .  A
C1023      C1028   1.451       .  S
C1024      C1025   1.420       .  A
C1024      C1040   1.451       .  S
C1025      C1026   1.420       .  A
C1026      C1029   1.451       .  S
C1027      C1030   1.410       .  A
C1027      C1034   1.409       .  A
C1028      N1045   1.157       .  T
C1029      N1047   1.157       .  T
C1030      C1031   1.412       .  A
C1030      C1035   1.451       .  S
C1031      C1032   1.417       .  A
C1031      C1037   1.451       .  S
C1032      C1033   1.418       .  A
C1033      C1034   1.412       .  A
C1033      C1036   1.450       .  S
C1034      C1038   1.451       .  S
C1035      N1042   1.157       .  T
C1036      N1043   1.157       .  T
C1037      N1041   1.157       .  T
C1038      N1044   1.157       .  T
C1039      N1048   1.157       .  T
C1040      N1046   1.158       .  T
