geometry optimzed in LAMMPS
_audit_creation_date              2020-11-30 
_audit_creation_method            'lammps2cif' 
_symmetry_space_group_name_H-M    'P1' 
_symmetry_Int_Tables_number       1 
_symmetry_cell_setting            triclinic 
loop_ 
_symmetry_equiv_pos_as_xyz 
  x,y,z 
_cell_length_a                    34.67016352 
_cell_length_b                    35.13408325804774 
_cell_length_c                    70.38031188900408 
_cell_angle_alpha                 88.20844905355156 
_cell_angle_beta                  90.75241442766462 
_cell_angle_gamma                 119.78635715721899 
loop_ 
_atom_site_label 
_atom_site_type_symbol 
_atom_site_fract_x 
_atom_site_fract_y 
_atom_site_fract_z 
_atom_site_charge 
C1          C  0.07610783  0.41821704  0.89622997     0.85900
C2          C  0.04045554  0.37893706  0.90843694    -0.54300
C3          C  0.05738475  0.35983144  0.92106417     0.08800
C4          C  0.10851349  0.38217667  0.91960477     0.19800
C5          C  0.10732936  0.44971297  0.91091426    -0.55100
C6          C  0.12359165  0.43118533  0.92348850     0.08900
C7          C  0.10381604  0.40124523  0.88678162    -0.54600
C8          C  0.11854409  0.37986510  0.89848305     0.09500
H9          H  0.00606121  0.37117858  0.90850501     0.14000
H10         H  0.12442638  0.36796039  0.92891552    -0.00300
H11         H  0.11144734  0.48210783  0.91285274     0.14300
H12         H  0.11606064  0.41014588  0.87246366     0.14100
C13         C  0.39845947  0.41777196  0.89667841     0.85900
C14         C  0.39573272  0.44465758  0.91299853    -0.54300
C15         C  0.36067754  0.42088095  0.92539158     0.08800
C16         C  0.33088700  0.37289511  0.91931444     0.19800
C17         C  0.39897786  0.37888526  0.90674251    -0.55100
C18         C  0.36478014  0.35584532  0.91897503     0.08900
C19         C  0.35368163  0.39756859  0.88691074    -0.54600
C20         C  0.31783078  0.37619511  0.89835832     0.09500
H21         H  0.42115511  0.47842378  0.91526424     0.14000
H22         H  0.30082020  0.35255736  0.92796158    -0.00300
H23         H  0.42759176  0.37400509  0.90655706     0.14300
H24         H  0.35025405  0.39434597  0.87190226     0.14100
C25         C  0.08707942  0.10405360  0.89654035     0.85900
C26         C  0.13033710  0.11022338  0.90630462    -0.54300
C27         C  0.15037005  0.14567364  0.91803572     0.08800
C28         C  0.12633704  0.17225433  0.91778535     0.19800
C29         C  0.05804541  0.10262069  0.91313768    -0.55100
C30         C  0.07927078  0.13788105  0.92473228     0.08900
C31         C  0.09952443  0.14758308  0.88633097    -0.54600
C32         C  0.12221921  0.18359028  0.89692945     0.09500
H33         H  0.14049707  0.08559006  0.90586520     0.14000
H34         H  0.14206268  0.20152619  0.92648459    -0.00300
H35         H  0.02481694  0.07547511  0.91582480     0.14300
H36         H  0.08667588  0.14957480  0.87255540     0.14100
O37         O  0.26211607  0.38378020  0.88073741    -0.82400
C38         C  0.15556980  0.23711381  0.83807670     0.97000
O39         O  0.19598954  0.26544425  0.84012719    -0.71500
O40         O  0.26747179  0.34131048  0.84884639    -0.75100
Al41       Al  0.22025998  0.29305613  0.86377847     1.49000
C42         C  0.26919354  0.37358398  0.83934975     0.92200
O43         O  0.16320848  0.37838839  0.85081265    -0.81300
O44         O  0.11477615  0.32168941  0.88022914    -0.74900
Al45       Al  0.20983329  0.37519023  0.86585381     1.90100
O46         O  0.12050559  0.31073061  0.84178621    -0.73900
O47         O  0.12569491  0.25084336  0.88704426    -0.73800
O48         O  0.12619635  0.23846708  0.84827206    -0.79500
O49         O  0.17984097  0.23982913  0.87811985    -0.77700
O50         O  0.18559581  0.31713471  0.86476256    -1.13800
O51         O  0.24925682  0.31712124  0.88740223    -0.73000
C52         C  0.27269763  0.35790154  0.88948110     0.97700
C53         C  0.13215880  0.35089260  0.84033048     0.94100
Al54       Al  0.12672202  0.28324019  0.86446856     1.55600
O55         O  0.24118225  0.38561130  0.84243596    -0.77600
C56         C  0.14465570  0.22801970  0.88769253     0.98300
C57         C  0.13901023  0.35533935  0.89001029     0.93200
O58         O  0.18077247  0.37246935  0.88933568    -0.82900
N59         N  0.25419024  0.46548108  0.00246042    -0.37200
N60         N  0.18675168  0.44706394  0.03191763    -0.57800
N61         N  0.25906889  0.97606883  0.05636870    -0.37200
N62         N  0.32466681  0.48989217  0.02718884    -0.57800
C63         C  0.21347885  0.44182543  0.99501463     0.26400
C64         C  0.28215548  0.45890512  0.99172507     0.26400
C65         C  0.22458495  0.95610644  0.06893749     0.26400
C66         C  0.29663170  0.98436875  0.06582641     0.26400
C67         C  0.16621007  0.45261162  0.01653753     0.35000
C68         C  0.16487234  0.44769700  0.04745691     0.35000
C69         C  0.34832332  0.50042968  0.01095776     0.35000
C70         C  0.35318857  0.51213417  0.04099704     0.35000
C71         C  0.21490976  0.41876891  0.97969246    -0.22500
C72         C  0.25843979  0.42973504  0.97751234    -0.22500
C73         C  0.24165770  0.95194429  0.08644966    -0.22500
C74         C  0.28617128  0.96862431  0.08433802    -0.22500
C75         C  0.12966716  0.45537457  0.02216409    -0.23500
C76         C  0.12741909  0.44985917  0.04169915    -0.23500
C77         C  0.39289108  0.52865522  0.01444385    -0.23500
C78         C  0.39593534  0.53679638  0.03365484    -0.23500
C79         C  0.18012578  0.45232656  0.99785666    -0.18900
C80         C  0.32882214  0.48219414  0.99356382    -0.18900
C81         C  0.34090177  0.01217101  0.05946071    -0.18900
C82         C  0.17997099  0.94743571  0.06554677    -0.18900
H83         H  0.18811249  0.39967669  0.96998805     0.14000
H84         H  0.27104814  0.41946175  0.96597815     0.14000
H85         H  0.22599689  0.94059245  0.10007714     0.14000
H86         H  0.30877828  0.97138838  0.09566339     0.14000
H87         H  0.10640022  0.45993182  0.01340868     0.12300
H88         H  0.10102312  0.44804795  0.05032162     0.12300
H89         H  0.41992104  0.54220728  0.00425610     0.12300
H90         H  0.42608336  0.55755637  0.04136879     0.12300
H91         H  0.26311217  0.49109595  0.01173863     0.25600
H92         H  0.25916881  0.48660849  0.04381603     0.25600
C93         C  0.12904044  0.03317334  0.15808152     0.85900
C94         C  0.13487028  0.06701915  0.14211844    -0.54300
C95         C  0.17034056  0.07786842  0.13006761     0.08800
C96         C  0.19577450  0.05360577  0.13554494     0.19800
C97         C  0.12519526  0.99395841  0.14752772    -0.55100
C98         C  0.15835812  0.00405502  0.13501052     0.08900
C99         C  0.17363250  0.05235101  0.16791352    -0.54600
C100        C  0.20916887  0.06592167  0.15645152     0.09500
H101        H  0.11056156  0.07746992  0.13965778     0.14000
H102        H  0.22554688  0.06174368  0.12693532    -0.00300
H103        H  0.09492655  0.46203907  0.14850502     0.14300
H104        H  0.17751666  0.05506768  0.18286429     0.14100
C105        C  0.43776812  0.36578635  0.15653729     0.85900
C106        C  0.46287335  0.35538907  0.14109300    -0.54300
C107        C  0.43453863  0.31981282  0.13003608     0.08800
C108        C  0.38529060  0.29989605  0.13581780     0.19800
C109        C  0.40317031  0.37227361  0.14510331    -0.55100
C110        C  0.37803838  0.33964347  0.13316561     0.08900
C111        C  0.41311577  0.32202467  0.16737045    -0.54600
C112        C  0.38496541  0.28683202  0.15709750     0.09500
H113        H  0.49846891  0.37490889  0.13883691     0.14000
H114        H  0.35960100  0.27300160  0.12753691    -0.00300
H115        H  0.40597827  0.40437080  0.14315801     0.14300
H116        H  0.42861316  0.31673346  0.17969980     0.14100
C117        C  0.46384561  0.06264479  0.16001540     0.85900
C118        C  0.43729216  0.04055603  0.14211049    -0.54300
C119        C  0.42880271  0.06805341  0.13052758     0.08800
C120        C  0.44882108  0.11512969  0.13804332     0.19800
C121        C  0.50601510  0.10364218  0.15231740    -0.55100
C122        C  0.49863490  0.12949758  0.13979761     0.08900
C123        C  0.43551413  0.07921394  0.16906581    -0.54600
C124        C  0.42863044  0.10811466  0.15826026     0.09500
H125        H  0.42681383  0.00679577  0.13885271     0.14000
H126        H  0.44366919  0.13847235  0.12891466    -0.00300
H127        H  0.53860425  0.10630384  0.15308524     0.14300
H128        H  0.41341104  0.06135241  0.18070173     0.14100
O129        O  0.39964125  0.23474378  0.17435025    -0.82400
C130        C  0.25638902  0.10614144  0.21443827     0.97000
O131        O  0.27695622  0.14707260  0.21167849    -0.71500
O132        O  0.34369873  0.22657864  0.20447376    -0.75100
Al133      Al  0.30500800  0.17668747  0.18849149     1.49000
C134        C  0.37555789  0.23133473  0.21509857     0.92200
O135        O  0.41006592  0.14439785  0.20499065    -0.81300
O136        O  0.36273979  0.09402881  0.17430987    -0.74900
Al137      Al  0.39820670  0.18531995  0.18921191     1.90100
O138        O  0.34234674  0.09341549  0.21190598    -0.73900
O139        O  0.28410510  0.08782186  0.16520562    -0.73800
O140        O  0.26356815  0.08188190  0.20372614    -0.79500
O141        O  0.25791648  0.13064388  0.17323555    -0.77700
O142        O  0.33959920  0.15213578  0.18826844    -1.13800
O143        O  0.33067930  0.21164105  0.16553541    -0.73000
C144        C  0.37123223  0.24128029  0.16519416     0.97700
C145        C  0.38352231  0.11054813  0.21480120     0.94100
Al146      Al  0.31531014  0.09419352  0.18858713     1.55600
O147        O  0.39380980  0.20856342  0.21230185    -0.77600
C148        C  0.25378977  0.09773267  0.16426371     0.98300
C149        C  0.39750532  0.12256911  0.16557152     0.93200
O150        O  0.40872475  0.16286765  0.16615583    -0.82900
N151        N  0.98939751  0.20334755  0.00145632    -0.37200
N152        N  0.02107634  0.16810302  0.03156531    -0.57800
N153        N  0.49385659  0.21355971  0.05530396    -0.37200
N154        N  0.96018697  0.24933166  0.02464384    -0.57800
C155        C  0.99265115  0.17088639  0.99327638     0.26400
C156        C  0.96663482  0.21555294  0.98938848     0.26400
C157        C  0.49581889  0.18261301  0.06649709     0.26400
C158        C  0.46653716  0.22453776  0.06405470     0.26400
C159        C  0.04207786  0.16365513  0.01669238     0.35000
C160        C  0.04530566  0.17137157  0.04716167     0.35000
C161        C  0.96734902  0.27283141  0.00821589     0.35000
C162        C  0.96337573  0.27543249  0.03897634     0.35000
C163        C  0.96939529  0.16055460  0.97625775    -0.22500
C164        C  0.95329810  0.18909170  0.97372243    -0.22500
C165        C  0.46787622  0.17188583  0.08189486    -0.22500
C166        C  0.44983405  0.19855701  0.08056979    -0.22500
C167        C  0.07995807  0.16304844  0.02279868    -0.23500
C168        C  0.08198321  0.16785840  0.04238531    -0.23500
C169        C  0.97389815  0.31398924  0.01207869    -0.23500
C170        C  0.97020872  0.31535063  0.03163504    -0.23500
C171        C  0.02613603  0.16055056  0.99800122    -0.18900
C172        C  0.96920069  0.25669195  0.99018602    -0.18900
C173        C  0.46352337  0.26234976  0.05895574    -0.18900
C174        C  0.52894505  0.17098896  0.06502232    -0.18900
H175        H  0.96818205  0.13797950  0.96583585     0.14000
H176        H  0.93669942  0.19205560  0.96112875     0.14000
H177        H  0.46344943  0.14935586  0.09357526     0.14000
H178        H  0.42837469  0.19878213  0.09132293     0.14000
H179        H  0.10380528  0.16046461  0.01399869     0.12300
H180        H  0.60157731  0.16031985  0.05078778     0.12300
H181        H  0.98233203  0.34054479  0.00194720     0.12300
H182        H  0.97437650  0.34309083  0.03952071     0.12300
H183        H  0.00994948  0.22263240  0.01227696     0.25600
H184        H  0.01580917  0.23446551  0.04406292     0.25600
N185        N  0.29974818  0.21891111  0.00119744    -0.37200
N186        N  0.22917796  0.16675951  0.02504613    -0.57800
N187        N  0.27906861  0.23373804  0.05175840    -0.37200
N188        N  0.35569586  0.28938489  0.02724070    -0.57800
C189        C  0.27859070  0.17939176  0.99316260     0.26400
C190        C  0.34263310  0.23876031  0.99584584     0.26400
C191        C  0.25370443  0.19774017  0.06269197     0.26400
C192        C  0.31346237  0.26117888  0.06265195     0.26400
C193        C  0.20803435  0.15007465  0.00865087     0.35000
C194        C  0.19855211  0.15431355  0.03871860     0.35000
C195        C  0.36664214  0.30867213  0.00974030     0.35000
C196        C  0.35539797  0.31837688  0.03933386     0.35000
C197        C  0.30856824  0.17216777  0.98343627    -0.22500
C198        C  0.34964216  0.20939204  0.98564323    -0.22500
C199        C  0.27361933  0.20162067  0.08036263    -0.22500
C200        C  0.31117570  0.24185654  0.08032625    -0.22500
C201        C  0.16257713  0.12617375  0.01185124    -0.23500
C202        C  0.15669674  0.12748576  0.03129442    -0.23500
C203        C  0.37327505  0.35102260  0.01080288    -0.23500
C204        C  0.36756940  0.35763583  0.02974380    -0.23500
C205        C  0.23203511  0.15522835  0.99184148    -0.18900
C206        C  0.36647502  0.28492827  0.99352407    -0.18900
C207        C  0.33979520  0.30608086  0.05823990    -0.18900
C208        C  0.21074738  0.16412254  0.05777866    -0.18900
H209        H  0.30111957  0.14462805  0.97463915     0.14000
H210        H  0.37951834  0.21631884  0.97827274     0.14000
H211        H  0.26135303  0.17912980  0.09249557     0.14000
H212        H  0.33244056  0.25664193  0.09240455     0.14000
H213        H  0.13669132  0.10854248  0.00160010     0.12300
H214        H  0.12553295  0.11103128  0.03899659     0.12300
H215        H  0.37904173  0.37402557  0.99919863     0.12300
H216        H  0.36856349  0.38640891  0.03539453     0.12300
H217        H  0.28390429  0.23515949  0.00642135     0.25600
H218        H  0.26986676  0.24226258  0.03882947     0.25600
C219        C  0.45550036  0.21620915  0.49504340     0.85900
C220        C  0.45371799  0.25369812  0.48377964    -0.54300
C221        C  0.98651181  0.27647858  0.47105194     0.08800
C222        C  0.02129476  0.26079765  0.47141426     0.19800
C223        C  0.45761076  0.18744905  0.47938550    -0.55100
C224        C  0.99261523  0.21131115  0.46680018     0.08900
C225        C  0.50125755  0.23644196  0.50397974    -0.54600
C226        C  0.03639430  0.26104666  0.49227153     0.09500
H227        H  0.42384383  0.25649502  0.48330637     0.14000
H228        H  0.05014587  0.28066014  0.46191902    -0.00300
H229        H  0.43179117  0.15370998  0.47780571     0.14300
H230        H  0.50670664  0.22814089  0.51810211     0.14100
C231        C  0.28272539  0.22903970  0.49440513     0.85900
C232        C  0.24133847  0.19170704  0.48506599    -0.54300
C233        C  0.22084793  0.20440800  0.47203934     0.08800
C234        C  0.24015027  0.25493427  0.47151653     0.19800
C235        C  0.31130567  0.25784530  0.47747687    -0.55100
C236        C  0.28929303  0.27250469  0.46534491     0.08900
C237        C  0.26704439  0.25759959  0.50366127    -0.54600
C238        C  0.24291903  0.26988701  0.49232618     0.09500
H239        H  0.23457656  0.15795864  0.48542153     0.14000
H240        H  0.22068620  0.26561686  0.46244638    -0.00300
H241        H  0.34414420  0.26272857  0.47464455     0.14300
H242        H  0.27708080  0.27006981  0.51766394     0.14100
C243        C  0.27390729  0.04350261  0.49370077     0.85900
C244        C  0.30999189  0.04331235  0.48127143    -0.54300
C245        C  0.29038400  0.50604120  0.46935744     0.08800
C246        C  0.23937612  0.47551554  0.47176422     0.19800
C247        C  0.23966676  0.04295775  0.47911308    -0.55100
C248        C  0.22137076  0.50710800  0.46745429     0.08900
C249        C  0.25238104  0.99834890  0.50359519    -0.54600
C250        C  0.23145693  0.46247053  0.49291370     0.09500
H251        H  0.34471284  0.06833700  0.48178901     0.14000
H252        H  0.22420475  0.44626030  0.46273227    -0.00300
H253        H  0.23335528  0.07016267  0.47728247     0.14300
H254        H  0.26287514  0.99375011  0.51750544     0.14100
O255        O  0.22997712  0.39587422  0.50282223    -0.82400
C256        C  0.08582449  0.27219613  0.55025898     0.97000
O257        O  0.08687988  0.30426025  0.54100350    -0.71500
O258        O  0.15793139  0.38004375  0.54854681    -0.75100
Al259      Al  0.13361432  0.35124059  0.52538103     1.49000
C260        C  0.19780908  0.40928333  0.55112672     0.92200
O261        O  0.23355054  0.33710303  0.54890671    -0.81300
O262        O  0.17838936  0.27331726  0.50156436    -0.74900
Al263      Al  0.22857667  0.36396648  0.52577804     1.90100
O264        O  0.19187190  0.26876159  0.54078523    -0.73900
O265        O  0.09568292  0.25938346  0.50905045    -0.73800
O266        O  0.11458673  0.26127002  0.54701268    -0.79500
O267        O  0.10359976  0.32414266  0.50212400    -0.77700
O268        O  0.16968187  0.32868368  0.52496363    -1.13800
O269        O  0.17312575  0.40385733  0.51051533    -0.73000
C270        C  0.20943898  0.41726966  0.50158608     0.97700
C271        C  0.22157688  0.29695631  0.55139183     0.94100
Al272      Al  0.14707953  0.27077290  0.52448159     1.55600
O273        O  0.22828144  0.40928959  0.54134797    -0.77600
C274        C  0.08241317  0.28295636  0.50036602     0.98300
C275        C  0.22036739  0.29237605  0.50100214     0.93200
O276        O  0.24297527  0.32634246  0.51078768    -0.82900
C277        C  0.21981254  0.08544916  0.22924985     0.85900
C278        C  0.21972578  0.11481853  0.24499440    -0.54300
C279        C  0.18400368  0.09452543  0.25748499     0.08800
C280        C  0.15293924  0.04527810  0.25255914     0.19800
C281        C  0.21885277  0.04652419  0.24029509    -0.55100
C282        C  0.18549007  0.02692047  0.25340509     0.08900
C283        C  0.17478865  0.06874500  0.22004591    -0.54600
C284        C  0.13952293  0.04554771  0.23153778     0.09500
H285        H  0.24865329  0.14648358  0.24698902     0.14000
H286        H  0.12289484  0.02563516  0.26134327    -0.00300
H287        H  0.24675454  0.04058117  0.24019317     0.14300
H288        H  0.17052205  0.08100125  0.20647783     0.14100
C289        C  0.39893199  0.26898551  0.22886828     0.85900
C290        C  0.43538695  0.26392869  0.23949731    -0.54300
C291        C  0.46214604  0.29731585  0.25063957     0.08800
C292        C  0.45314630  0.33577521  0.24871788     0.19800
C293        C  0.37507592  0.27942126  0.24487537    -0.55100
C294        C  0.40427358  0.31627586  0.25514416     0.08900
C295        C  0.42175552  0.31227758  0.21771791    -0.54600
C296        C  0.45088159  0.34728643  0.22774286     0.09500
H297        H  0.43257749  0.23191340  0.24198412     0.14000
H298        H  0.47919527  0.36331511  0.25660565    -0.00300
H299        H  0.33958312  0.26043894  0.24743995     0.14300
H300        H  0.40506976  0.31747799  0.20578374     0.14100
C301        C  0.39934309  0.08713516  0.22901448     0.85900
C302        C  0.35952438  0.04869177  0.23947100    -0.54300
C303        C  0.37008133  0.02624631  0.25260957     0.08800
C304        C  0.42014878  0.04075579  0.25234151     0.19800
C305        C  0.43044188  0.11413306  0.24513022    -0.55100
C306        C  0.44211696  0.09003548  0.25735342     0.08900
C307        C  0.42474191  0.06715722  0.21986155    -0.54600
C308        C  0.43419784  0.04095530  0.23137546     0.09500
H309        H  0.32691997  0.04602501  0.23973856     0.14000
H310        H  0.42797254  0.02030965  0.26222580    -0.00300
H311        H  0.44133723  0.14859664  0.24691952     0.14300
H312        H  0.44166731  0.07939789  0.20656631     0.14100
O313        O  0.07045840  0.04018694  0.22187717    -0.82400
C314        C  0.46239429  0.40290368  0.17055670     0.97000
O315        O  0.99304312  0.40497459  0.18167221    -0.71500
O316        O  0.06387952  0.48013257  0.17489491    -0.75100
Al317      Al  0.03625874  0.45195018  0.19756745     1.49000
C318        C  0.09158720  0.02005950  0.17210593     0.92200
O319        O  0.01652330  0.05110087  0.17604267    -0.81300
O320        O  0.44177398  0.47936764  0.22058175    -0.74900
Al321      Al  0.04086752  0.04193439  0.19869848     1.90100
O322        O  0.44548771  0.50116164  0.18195720    -0.73900
O323        O  0.44072239  0.40253248  0.21136966    -0.73800
O324        O  0.44837533  0.42940323  0.17330572    -0.79500
O325        O  0.00949456  0.41984837  0.22015633    -0.77700
O326        O  0.00897456  0.48359734  0.19873482    -1.13800
O327        O  0.08728108  0.49078399  0.21263938    -0.73000
C328        C  0.09468343  0.02266974  0.22259283     0.97700
C329        C  0.47549853  0.03533619  0.17374258     0.94100
Al330      Al  0.44889904  0.45512981  0.19707728     1.55600
O331        O  0.08967012  0.04765208  0.18276634    -0.77600
C332        C  0.46720693  0.39241000  0.22000403     0.98300
C333        C  0.46051365  0.02124730  0.22325377     0.93200
O334        O  0.99843484  0.04884727  0.21398781    -0.82900
N335        N  0.10747232  0.16401176  0.33745480    -0.37200
N336        N  0.04313935  0.15882509  0.36343461    -0.57800
N337        N  0.10291097  0.15905890  0.39150119    -0.37200
N338        N  0.16876472  0.16364265  0.36503186    -0.57800
C339        C  0.08113744  0.17434875  0.32683624     0.26400
C340        C  0.14526067  0.17740312  0.32750964     0.26400
C341        C  0.07894417  0.17333706  0.40081721     0.26400
C342        C  0.14173882  0.17415163  0.40084627     0.26400
C343        C  0.01702814  0.14487209  0.34800756     0.35000
C344        C  0.01657870  0.14737035  0.37875741     0.35000
C345        C  0.18110382  0.14989897  0.34983572     0.35000
C346        C  0.17860397  0.14721727  0.38073495     0.35000
C347        C  0.10318782  0.19675821  0.31038079    -0.22500
C348        C  0.14374010  0.19870362  0.31076648    -0.22500
C349        C  0.10340253  0.19888340  0.41586422    -0.22500
C350        C  0.14324545  0.19992839  0.41565898    -0.22500
C351        C  0.97280303  0.12416843  0.35349553    -0.23500
C352        C  0.97248030  0.12669690  0.37316389    -0.23500
C353        C  0.20061279  0.12538534  0.35585265    -0.23500
C354        C  0.19878615  0.12349738  0.37562079    -0.23500
C355        C  0.03482250  0.15379788  0.32943532    -0.18900
C356        C  0.17350025  0.15971185  0.33097132    -0.18900
C357        C  0.16969102  0.15595832  0.39911313    -0.18900
C358        C  0.03399629  0.15982692  0.39710508    -0.18900
H359        H  0.08978526  0.20703088  0.29859286     0.14000
H360        H  0.16758642  0.21150961  0.29927215     0.14000
H361        H  0.09327505  0.21368033  0.42651048     0.14000
H362        H  0.16878924  0.21481265  0.42624815     0.14000
H363        H  0.44193162  0.10429260  0.34387666     0.12300
H364        H  0.44040772  0.11041535  0.38169161     0.12300
H365        H  0.21383236  0.10990939  0.34698871     0.12300
H366        H  0.21050375  0.10655152  0.38506151     0.12300
H367        H  0.09638430  0.14064285  0.34856030     0.25600
H368        H  0.09069191  0.13446041  0.38149485     0.25600
N369        N  0.32733227  0.40623393  0.39837491    -0.37200
N370        N  0.34903432  0.49302035  0.36370726    -0.57800
N371        N  0.37147079  0.44434185  0.33579152    -0.37200
N372        N  0.37806823  0.37898953  0.36014259    -0.57800
C373        C  0.30690897  0.42564512  0.38947603     0.26400
C374        C  0.32010083  0.37296985  0.38742100     0.26400
C375        C  0.37853409  0.48278079  0.32759837     0.26400
C376        C  0.39026031  0.42757148  0.32435772     0.26400
C377        C  0.32677263  0.49708840  0.37843467     0.35000
C378        C  0.33569607  0.50459797  0.34764868     0.35000
C379        C  0.36389456  0.34682807  0.37378251     0.35000
C380        C  0.37488188  0.36044667  0.34344642     0.35000
C381        C  0.28461268  0.40324091  0.37341304    -0.22500
C382        C  0.29345217  0.36971858  0.37199289    -0.22500
C383        C  0.40528900  0.49246988  0.31176944    -0.22500
C384        C  0.41126783  0.45740075  0.30927614    -0.22500
C385        C  0.30205822  0.51586529  0.37172236    -0.23500
C386        C  0.30684848  0.51958064  0.35206355    -0.23500
C387        C  0.35565782  0.30794286  0.36607825    -0.23500
C388        C  0.36146941  0.31637918  0.34670010    -0.23500
C389        C  0.31384147  0.46670865  0.39400768    -0.18900
C390        C  0.34210104  0.34940136  0.38983505    -0.18900
C391        C  0.38251366  0.38351105  0.32575121    -0.18900
C392        C  0.34923916  0.49965597  0.32951857    -0.18900
H393        H  0.26643632  0.41204407  0.36325021     0.14000
H394        H  0.28347559  0.34686459  0.36052808     0.14000
H395        H  0.41422401  0.51922088  0.30154070     0.14000
H396        H  0.42677420  0.45440167  0.29672319     0.14000
H397        H  0.28688804  0.02843398  0.38020115     0.12300
H398        H  0.29268138  0.03319149  0.34249810     0.12300
H399        H  0.33960666  0.27578126  0.37300367     0.12300
H400        H  0.35096254  0.29147950  0.33632437     0.12300
H401        H  0.34915040  0.41792644  0.40988503     0.25600
H402        H  0.34826100  0.42689200  0.34639965     0.25600
N403        N  0.05679027  0.39689077  0.38976344    -0.37200
N404        N  0.00079627  0.33452141  0.36196685    -0.57800
N405        N  0.06481463  0.39405774  0.33479081    -0.37200
N406        N  0.12005519  0.45726310  0.36176151    -0.57800
C407        C  0.03362826  0.35771165  0.39924099     0.26400
C408        C  0.09330952  0.42143735  0.40041884     0.26400
C409        C  0.02833436  0.36933096  0.32426627     0.26400
C410        C  0.09045674  0.43094580  0.32425332     0.26400
C411        C  0.97387201  0.31451705  0.37708715     0.35000
C412        C  0.98246677  0.30932225  0.34671779     0.35000
C413        C  0.14190907  0.47955135  0.37725240     0.35000
C414        C  0.14839508  0.47451238  0.34680933     0.35000
C415        C  0.05705565  0.35677372  0.41517148    -0.22500
C416        C  0.09355787  0.39719285  0.41633528    -0.22500
C417        C  0.03001096  0.39169534  0.30741046    -0.22500
C418        C  0.06906210  0.43075595  0.30746750    -0.22500
C419        C  0.93605046  0.27769144  0.37104248    -0.23500
C420        C  0.94380267  0.27188756  0.35240297    -0.23500
C421        C  0.18413767  0.51251660  0.37201202    -0.23500
C422        C  0.18887857  0.50814470  0.35291445    -0.23500
C423        C  0.98854486  0.32581720  0.39607687    -0.18900
C424        C  0.12788661  0.46465778  0.39620098    -0.18900
C425        C  0.13560485  0.46063854  0.32791605    -0.18900
C426        C  0.99781389  0.32434352  0.32783899    -0.18900
H427        H  0.04749608  0.33027899  0.42553154     0.14000
H428        H  0.11807877  0.40703609  0.42752872     0.14000
H429        H  0.00687156  0.37968048  0.29570006     0.14000
H430        H  0.08174416  0.45499176  0.29592509     0.14000
H431        H  0.40905204  0.25519402  0.37824033     0.12300
H432        H  0.42412276  0.24279237  0.34317879     0.12300
H433        H  0.21464202  0.03809618  0.38000464     0.12300
H434        H  0.22252808  0.03118500  0.34344872     0.12300
H435        H  0.04588405  0.40798506  0.37807930     0.25600
H436        H  0.07515860  0.38321492  0.34675077     0.25600
C437        C  0.30685066  0.39901127  0.82514653     0.85900
C438        C  0.30421407  0.43301740  0.81162253    -0.54300
C439        C  0.34016895  0.45446500  0.79955907     0.08800
C440        C  0.37539541  0.43956096  0.80246904     0.19800
C441        C  0.31286425  0.36861021  0.81171610    -0.55100
C442        C  0.34783200  0.38983300  0.79931956     0.08900
C443        C  0.35127209  0.42545938  0.83513139    -0.54600
C444        C  0.38769438  0.44439314  0.82381545     0.09500
H445        H  0.27501965  0.43678059  0.81052615     0.14000
H446        H  0.40464755  0.45748133  0.79297673    -0.00300
H447        H  0.28853104  0.33398190  0.81072891     0.14300
H448        H  0.35392690  0.43278355  0.84986979     0.14100
C449        C  0.14174661  0.19918020  0.82457493     0.85900
C450        C  0.17800773  0.19922714  0.81192599    -0.54300
C451        C  0.16244986  0.16293984  0.80069115     0.08800
C452        C  0.11209643  0.13051268  0.80342762     0.19800
C453        C  0.10576465  0.19468521  0.81033519    -0.55100
C454        C  0.09182346  0.15986613  0.79862164     0.08900
C455        C  0.12190234  0.15517369  0.83545452    -0.54600
C456        C  0.10417597  0.11906213  0.82464905     0.09500
H457        H  0.21123436  0.22727607  0.81061229     0.14000
H458        H  0.09871028  0.10039761  0.79499551    -0.00300
H459        H  0.09592142  0.21946066  0.80838088     0.14300
H460        H  0.12483720  0.15278621  0.85048992     0.14100
C461        C  0.10838596  0.36648415  0.82646277     0.85900
C462        C  0.07497546  0.33272623  0.81256331    -0.54300
C463        C  0.05489478  0.34931737  0.80053429     0.08800
C464        C  0.07094329  0.39857457  0.80362803     0.19800
C465        C  0.14116856  0.40424611  0.81342531    -0.55100
C466        C  0.12137922  0.42023663  0.80120515     0.08900
C467        C  0.08126950  0.38380118  0.83632837    -0.54600
C468        C  0.06397337  0.40305730  0.82465749     0.09500
H469        H  0.07047040  0.30005318  0.81138135     0.14000
H470        H  0.05508354  0.41264411  0.79413995    -0.00300
H471        H  0.17616013  0.41400433  0.81245849     0.14300
H472        H  0.07358824  0.37902471  0.85117380     0.14100
O473        O  0.08683072  0.04570434  0.83381519    -0.82400
C474        C  0.43617999  0.44149627  0.88267225     0.97000
O475        O  0.44298121  0.47624339  0.87376924    -0.71500
O476        O  0.02406769  0.04573531  0.88056649    -0.75100
Al477      Al  0.49578939  0.02143880  0.85737127     1.49000
C478        C  0.06569129  0.06627532  0.88287688     0.92200
O479        O  0.07926166  0.48087805  0.87951112    -0.81300
O480        O  0.01048582  0.42350669  0.83346603    -0.74900
Al481      Al  0.07809119  0.00990542  0.85638258     1.90100
O482        O  0.02559149  0.41616974  0.87167339    -0.73900
O483        O  0.43741773  0.42792908  0.84107470    -0.73800
O484        O  0.45838182  0.42345855  0.87870738    -0.79500
O485        O  0.45994866  0.49761219  0.83518434    -0.77700
O486        O  0.02107071  0.48846234  0.85655513    -1.13800
O487        O  0.04081671  0.06830329  0.84245842    -0.73000
C488        C  0.07506331  0.07461849  0.83336991     0.97700
C489        C  0.05872336  0.43963816  0.88198612     0.94100
Al490      Al  0.48526466  0.42669215  0.85552199     1.55600
O491        O  0.09017896  0.05866252  0.87228673    -0.77600
C492        C  0.43185725  0.45760882  0.83284286     0.98300
C493        C  0.05089595  0.43377893  0.83262462     0.93200
O494        O  0.08019426  0.46698044  0.84131476    -0.82900
C495        C  0.20760592  0.44646150  0.56457420     0.85900
C496        C  0.24415368  0.45755060  0.58008882    -0.54300
C497        C  0.25079453  0.49175374  0.59162599     0.08800
C498        C  0.22179584  0.01125870  0.58574417     0.19800
C499        C  0.16648096  0.43797850  0.57575187    -0.55100
C500        C  0.17352970  0.47012862  0.58773406     0.08900
C501        C  0.22196938  0.49009677  0.55398216    -0.54600
C502        C  0.23534562  0.02586978  0.56478177     0.09500
H503        H  0.26121570  0.43890572  0.58210390     0.14000
H504        H  0.22389577  0.03770943  0.59450457    -0.00300
H505        H  0.13621266  0.40631224  0.57640546     0.14300
H506        H  0.22314978  0.49359514  0.53893092     0.14100
C507        C  0.04806041  0.24337027  0.56399812     0.85900
C508        C  0.04477308  0.26374144  0.58250380    -0.54300
C509        C  0.00991947  0.23483498  0.59416861     0.08800
C510        C  0.48233208  0.19012808  0.58638563     0.19800
C511        C  0.05036701  0.20224488  0.57069245    -0.55100
C512        C  0.01830074  0.17508181  0.58317885     0.08900
C513        C  0.00230553  0.22703848  0.55531836    -0.54600
C514        C  0.46711487  0.19782944  0.56647576     0.09500
H515        H  0.06823410  0.29735891  0.58602039     0.14000
H516        H  0.45480300  0.16477073  0.59506605    -0.00300
H517        H  0.08048939  0.20022202  0.56934036     0.14300
H518        H  0.99722792  0.24520995  0.54388095     0.14100
C519        C  0.24736048  0.28362156  0.56523456     0.85900
C520        C  0.22345488  0.25602150  0.58323896    -0.54300
C521        C  0.24956297  0.24430730  0.59429003     0.08800
C522        C  0.29713373  0.26297660  0.58616988     0.19800
C523        C  0.28935019  0.32336838  0.57312415    -0.55100
C524        C  0.31417973  0.31317907  0.58516793     0.08900
C525        C  0.26268504  0.25532966  0.55551540    -0.54600
C526        C  0.28951117  0.24500869  0.56590350     0.09500
H527        H  0.19057429  0.24932837  0.58727756     0.14000
H528        H  0.31958442  0.25424528  0.59409701    -0.00300
H529        H  0.29329718  0.35606109  0.57275472     0.14300
H530        H  0.24717876  0.23828783  0.54270560     0.14100
O531        O  0.41573259  0.21437758  0.55098824    -0.82400
C532        C  0.29107513  0.07955255  0.50818616     0.97000
O533        O  0.33171084  0.09895022  0.51215170    -0.71500
O534        O  0.41090711  0.16247292  0.52031744    -0.75100
Al535      Al  0.35765149  0.12324755  0.53570124     1.49000
C536        C  0.41856669  0.19591857  0.51000086     0.92200
O537        O  0.33390175  0.23335012  0.51963352    -0.81300
O538        O  0.27536671  0.18283677  0.54798588    -0.74900
Al539      Al  0.37011485  0.21686308  0.53578370     1.90100
O540        O  0.28403991  0.16863694  0.51033599    -0.73900
O541        O  0.26215797  0.10147441  0.55604109    -0.73800
O542        O  0.26483608  0.08730026  0.51757173    -0.79500
O543        O  0.30652423  0.07524001  0.55004327    -0.77700
O544        O  0.33471538  0.15887062  0.53547721    -1.13800
O545        O  0.39017569  0.14524041  0.55921076    -0.73000
C546        C  0.42087654  0.18500531  0.55971537     0.97700
C547        C  0.30260821  0.20979402  0.50850714     0.94100
Al548      Al  0.27649876  0.13709029  0.53329030     1.55600
O549        O  0.39803541  0.21629391  0.51321562    -0.77600
C550        C  0.27068612  0.07050984  0.55744477     0.98300
C551        C  0.30329717  0.21437295  0.55798266     0.93200
O552        O  0.34353913  0.22340283  0.55848435    -0.82900
N553        N  0.42822986  0.31572221  0.66802043    -0.37200
N554        N  0.44944727  0.26979411  0.69916565    -0.57800
N555        N  0.39414390  0.28627229  0.72250104    -0.37200
N556        N  0.36799992  0.32680503  0.69209779    -0.57800
C557        C  0.44757019  0.29644568  0.65861435     0.26400
C558        C  0.40354361  0.32393830  0.65505356     0.26400
C559        C  0.40505941  0.26244987  0.73452661     0.26400
C560        C  0.36063625  0.28896665  0.73053189     0.26400
C561        C  0.47808832  0.27203302  0.68590193     0.35000
C562        C  0.46469878  0.26349938  0.71605512     0.35000
C563        C  0.36911291  0.35199292  0.67693644     0.35000
C564        C  0.35625618  0.34119543  0.70737323     0.35000
C565        C  0.43678716  0.29485015  0.63948974    -0.22500
C566        C  0.40747037  0.30943790  0.63750755    -0.22500
C567        C  0.37705461  0.24829975  0.75014793    -0.22500
C568        C  0.34864563  0.26472918  0.74754340    -0.22500
C569        C  0.01279810  0.26830534  0.69307600    -0.23500
C570        C  0.00619185  0.26609568  0.71243959    -0.23500
C571        C  0.35656378  0.38170533  0.68246164    -0.23500
C572        C  0.34861907  0.37500293  0.70181549    -0.23500
C573        C  0.47456293  0.27974948  0.66640506    -0.18900
C574        C  0.37929222  0.34610927  0.65820126    -0.18900
C575        C  0.35138383  0.32297153  0.72604116    -0.18900
C576        C  0.44594440  0.26334245  0.73371635    -0.18900
H577        H  0.44815229  0.28418468  0.62773904     0.14000
H578        H  0.39065416  0.30826164  0.62437376     0.14000
H579        H  0.37899912  0.23090729  0.76274363     0.14000
H580        H  0.32518987  0.26317905  0.75796092     0.14000
H581        H  0.03879388  0.26559622  0.68598097     0.12300
H582        H  0.02563988  0.26095185  0.72331434     0.12300
H583        H  0.35382609  0.40573589  0.67352692     0.12300
H584        H  0.33718982  0.39194651  0.71067403     0.12300
H585        H  0.43466962  0.32582378  0.68198006     0.25600
H586        H  0.41507599  0.30811289  0.71208956     0.25600
N587        N  0.19145769  0.07517692  0.66909101    -0.37200
N588        N  0.18307499  0.00438085  0.69296480    -0.57800
N589        N  0.22382178  0.07178686  0.72140086    -0.37200
N590        N  0.23490838  0.14268297  0.69785210    -0.57800
C591        C  0.18678427  0.04403884  0.65705867     0.26400
C592        C  0.21335020  0.11370264  0.65941582     0.26400
C593        C  0.22338236  0.03656287  0.72975042     0.26400
C594        C  0.24690441  0.10617030  0.73283552     0.26400
C595        C  0.15451879  0.98154787  0.67904468     0.35000
C596        C  0.16872643  0.97928777  0.70892086     0.35000
C597        C  0.22369223  0.16411017  0.68476701     0.35000
C598        C  0.23797231  0.16164816  0.71453395     0.35000
C599        C  0.20757403  0.06308277  0.63990961    -0.22500
C600        C  0.22422564  0.10723213  0.64133769    -0.22500
C601        C  0.24850047  0.04926927  0.74622443    -0.22500
C602        C  0.26317466  0.09313673  0.74824417    -0.22500
C603        C  0.12550019  0.43919423  0.68712970    -0.23500
C604        C  0.13392967  0.43959196  0.70641210    -0.23500
C605        C  0.22236504  0.19894445  0.69276177    -0.23500
C606        C  0.23082944  0.19696324  0.71188339    -0.23500
C607        C  0.15848831  0.99893590  0.66047714    -0.18900
C608        C  0.21744013  0.15310884  0.66559419    -0.18900
C609        C  0.24247300  0.14392908  0.73212738    -0.18900
C610        C  0.18929989  0.99315196  0.72671385    -0.18900
H611        H  0.20890206  0.04669429  0.62741008     0.14000
H612        H  0.24076666  0.13151881  0.63005685     0.14000
H613        H  0.25045039  0.02768136  0.75699408     0.14000
H614        H  0.28012131  0.11193259  0.76054890     0.14000
H615        H  0.09953598  0.41246478  0.67940734     0.12300
H616        H  0.11621414  0.41271805  0.71652185     0.12300
H617        H  0.21482904  0.22226140  0.68568001     0.12300
H618        H  0.23048713  0.21803826  0.72266901     0.12300
H619        H  0.17432215  0.06989869  0.68185258     0.25600
H620        H  0.20072016  0.06978322  0.71133933     0.25600
N621        N  0.43403983  0.10492340  0.72012514    -0.37200
N622        N  0.50043929  0.12915117  0.69117623    -0.57800
N623        N  0.42604500  0.08296425  0.66599246    -0.37200
N624        N  0.35963600  0.06027119  0.69563749    -0.57800
C625        C  0.47117187  0.13478905  0.72886880     0.26400
C626        C  0.39933283  0.09598326  0.73151154     0.26400
C627        C  0.46058389  0.11024693  0.65456894     0.26400
C628        C  0.38852814  0.07449182  0.65643556     0.26400
C629        C  0.52692959  0.13764041  0.70645877     0.35000
C630        C  0.52308308  0.12802514  0.67598931     0.35000
C631        C  0.33884709  0.04177852  0.71226427     0.35000
C632        C  0.33311581  0.03496537  0.68169228     0.35000
C633        C  0.45975150  0.14731101  0.74542103    -0.22500
C634        C  0.41439890  0.12254631  0.74716484    -0.22500
C635        C  0.44487676  0.12027379  0.63816721    -0.22500
C636        C  0.39991264  0.09714239  0.63903532    -0.22500
C637        C  0.06982707  0.14382839  0.70027488    -0.23500
C638        C  0.06772749  0.13894583  0.68069384    -0.23500
C639        C  0.29890016  0.50374870  0.70885655    -0.23500
C640        C  0.29463240  0.50057187  0.68931070    -0.23500
C641        C  0.51398149  0.14164147  0.72492735    -0.18900
C642        C  0.35795038  0.05722429  0.73027422    -0.18900
C643        C  0.34467271  0.04358936  0.66229440    -0.18900
C644        C  0.50565656  0.12241232  0.65740753    -0.18900
H645        H  0.48209156  0.16909732  0.75600327     0.14000
H646        H  0.39549659  0.12254055  0.75922624     0.14000
H647        H  0.46382390  0.14131397  0.62639093     0.14000
H648        H  0.37918102  0.09749609  0.62763231     0.14000
H649        H  0.09810742  0.15126267  0.70926609     0.12300
H650        H  0.09398031  0.14173966  0.67158423     0.12300
H651        H  0.27522434  0.48158587  0.71931534     0.12300
H652        H  0.26705096  0.47517834  0.68163071     0.12300
H653        H  0.43326030  0.08503047  0.70933607     0.25600
H654        H  0.42774249  0.06639010  0.67824155     0.25600
C655        C  0.33158177  0.33979203  0.60285383    -0.06700
C656        C  0.30161841  0.33212653  0.61776263    -0.17800
C657        C  0.31605617  0.33954563  0.63673188     0.10500
C658        C  0.36211207  0.35942331  0.64072278    -0.06600
C659        C  0.39161261  0.38007293  0.62518270    -0.17900
C660        C  0.37707758  0.36820515  0.60632411     0.10500
S661        S  0.27351808  0.31827349  0.65482707    -0.32800
S662        S  0.41837870  0.38555375  0.58785286    -0.32900
H663        H  0.38933612  0.37846601  0.57254273     0.28500
H664        H  0.28949760  0.29375242  0.66477801     0.28500
H665        H  0.26625223  0.31474959  0.61502655     0.19100
H666        H  0.42705428  0.39812235  0.62785030     0.19100
C667        C  0.23796043  0.22323694  0.61372435    -0.06700
C668        C  0.27308461  0.23458202  0.62675756    -0.17800
C669        C  0.26613804  0.21540345  0.64480583     0.10500
C670        C  0.22292887  0.18552606  0.65072232    -0.06600
C671        C  0.18704812  0.17545232  0.63845480    -0.17900
C672        C  0.19421505  0.19237643  0.61975123     0.10500
S673        S  0.31342020  0.22431747  0.65907809    -0.32800
S674        S  0.14745855  0.16742141  0.60388030    -0.32900
H675        H  0.17231523  0.16623503  0.58849562     0.28500
H676        H  0.33864874  0.22494557  0.64345680     0.28500
H677        H  0.30692991  0.25815709  0.62310317     0.19100
H678        H  0.15401656  0.14993267  0.64268443     0.19100
C679        C  0.49265743  0.26180484  0.65258637    -0.06700
C680        C  0.46043312  0.22354959  0.64397059    -0.17800
C681        C  0.46208354  0.21954191  0.62440538     0.10500
C682        C  0.00340545  0.24424152  0.61399306    -0.06600
C683        C  0.03999181  0.27552687  0.62431565    -0.17900
C684        C  0.03453663  0.28655226  0.64260911     0.10500
S685        S  0.40865387  0.19162270  0.61284909    -0.32800
S686        S  0.08172790  0.33250397  0.65314367    -0.32900
H687        H  0.05923420  0.33989592  0.66765517     0.28500
H688        H  0.42186595  0.22077677  0.59699913     0.28500
H689        H  0.42879859  0.20369128  0.65116349     0.19100
H690        H  0.07268171  0.29316148  0.61791567     0.19100
C691        C  0.03326175  0.15916431  0.60027222    -0.06700
C692        C  0.55958660  0.19215815  0.61498104    -0.17800
C693        C  0.55873284  0.17961957  0.63414338     0.10500
C694        C  0.53344798  0.13491853  0.63969587    -0.06600
C695        C  0.51748102  0.10373016  0.62516988    -0.17900
C696        C  0.01414227  0.11449672  0.60565116     0.10500
S697        S  0.58330743  0.22245459  0.65116619    -0.32800
S698        S  0.98137852  0.07148692  0.58945799    -0.32900
H699        H  0.00107080  0.09660761  0.57279110     0.28500
H700        H  0.54275834  0.21041684  0.66023988     0.28500
H701        H  0.57642083  0.22680230  0.61120529     0.19100
H702        H  0.49893000  0.06914293  0.62911880     0.19100
C703        C  0.27658304  0.50495222  0.60980368    -0.06700
C704        C  0.28043024  0.97212915  0.62114789    -0.17800
C705        C  0.29968583  0.98248105  0.63930976     0.10500
C706        C  0.31069760  0.02331711  0.64710219    -0.06600
C707        C  0.30047997  0.05170009  0.63673950    -0.17900
C708        C  0.28819637  0.54556150  0.61813873     0.10500
S709        S  0.30864385  0.94196380  0.65174641    -0.32800
S710        S  0.30088961  0.59424244  0.60382777    -0.32900
H711        H  0.30440958  0.62133749  0.61881752     0.28500
H712        H  0.34566852  0.97107338  0.66235853     0.28500
H713        H  0.27020931  0.93999397  0.61574843     0.19100
H714        H  0.31027318  0.08346052  0.64253298     0.19100
C715        C  0.14965838  0.45785190  0.60635850    -0.06700
C716        C  0.12631409  0.98187491  0.61017552    -0.17800
C717        C  0.11810145  0.98524627  0.62933465     0.10500
C718        C  0.13800959  0.97139364  0.64363320    -0.06600
C719        C  0.15353426  0.94318986  0.63868835    -0.17900
C720        C  0.15851201  0.43376630  0.62067390     0.10500
S721        S  0.08914356  0.01424835  0.63488328    -0.32800
S722        S  0.17722020  0.39567161  0.61565640    -0.32900
H723        H  0.14104223  0.37052688  0.60374349     0.28500
H724        H  0.08205551  0.00068821  0.65416776     0.28500
H725        H  0.11788990  0.99899879  0.59929359     0.19100
H726        H  0.16891893  0.42903302  0.65061207     0.19100
C727        C  0.02849129  0.32627994  0.78336203    -0.06700
C728        C  0.03711883  0.35126958  0.76636696    -0.17800
C729        C  0.01312580  0.33346865  0.74977856     0.10500
C730        C  0.98081236  0.28852197  0.74954283    -0.06600
C731        C  0.97305772  0.26262694  0.76620546    -0.17900
C732        C  0.99566587  0.28117000  0.78319197     0.10500
S733        S  0.02220407  0.36944167  0.72927894    -0.32800
S734        S  0.97835522  0.24627169  0.80428383    -0.32900
H735        H  0.98379853  0.27936771  0.81659376     0.28500
H736        H  0.05141281  0.40921933  0.73792269     0.28500
H737        H  0.06246828  0.38539376  0.76600791     0.19100
H738        H  0.44467030  0.22237273  0.76756283     0.19100
C739        C  0.14193229  0.44242510  0.78311851    -0.06700
C740        C  0.15863564  0.42223857  0.77136338    -0.17800
C741        C  0.17147509  0.43721799  0.75262687     0.10500
C742        C  0.16658213  0.47234712  0.74552284    -0.06600
C743        C  0.14796786  0.49112445  0.75703921    -0.17900
C744        C  0.13699946  0.47753090  0.77590411     0.10500
S745        S  0.19482706  0.41222402  0.73810723    -0.32800
S746        S  0.11888438  0.50750597  0.79024142    -0.32900
H747        H  0.13428424  0.49920848  0.80759970     0.28500
H748        H  0.18686983  0.37750980  0.75091167     0.28500
H749        H  0.16070534  0.39412488  0.77678003     0.19100
H750        H  0.14503190  0.51881037  0.75162340     0.19100
C751        C  0.07226907  0.15763862  0.77950684    -0.06700
C752        C  0.04028826  0.11603046  0.77353856    -0.17800
C753        C  0.02658106  0.10889134  0.75466960     0.10500
C754        C  0.04251168  0.14466382  0.74144244    -0.06600
C755        C  0.07517076  0.18623324  0.74713286    -0.17900
C756        C  0.09130268  0.19296354  0.76588000     0.10500
S757        S  0.98697534  0.05342883  0.74845953    -0.32800
S758        S  0.13749375  0.24602671  0.77167358    -0.32900
H759        H  0.14446809  0.26533701  0.75331437     0.28500
H760        H  0.49756119  0.05977051  0.72915276     0.28500
H761        H  0.02698745  0.08836797  0.78356644     0.19100
H762        H  0.08683098  0.21358441  0.73702127     0.19100
C763        C  0.18622460  0.16039840  0.78352420    -0.06700
C764        C  0.16051848  0.14232384  0.76717583    -0.17800
C765        C  0.17832053  0.13683906  0.75062541     0.10500
C766        C  0.22436095  0.15271868  0.74944777    -0.06600
C767        C  0.25097996  0.17166938  0.76547969    -0.17900
C768        C  0.23228035  0.17464575  0.78263803     0.10500
S769        S  0.14091765  0.10650317  0.73153602    -0.32800
S770        S  0.26820158  0.19328679  0.80303555    -0.32900
H771        H  0.23542295  0.16504140  0.81616020     0.28500
H772        H  0.10090829  0.09797071  0.74011166     0.28500
H773        H  0.12566234  0.13138251  0.76715412     0.19100
H774        H  0.28602074  0.18207997  0.76493436     0.19100
C775        C  0.33974149  0.47935697  0.78195407    -0.06700
C776        C  0.35072263  0.46793200  0.76475473    -0.17800
C777        C  0.35395383  0.49050211  0.74771926     0.10500
C778        C  0.34513709  0.52567504  0.74726708    -0.06600
C779        C  0.33158355  0.53584583  0.76423676    -0.17900
C780        C  0.32905105  0.51340303  0.78153559     0.10500
S781        S  0.37257715  0.47417298  0.72734874    -0.32800
S782        S  0.31520183  0.53208655  0.80257191    -0.32900
H783        H  0.34271208  0.52395897  0.81489516     0.28500
H784        H  0.40656806  0.51652829  0.72248042     0.28500
H785        H  0.35858055  0.44197658  0.76446574     0.19100
H786        H  0.32687460  0.06506328  0.76466561     0.19100
C787        C  0.34896302  0.34647959  0.74277681    -0.06700
C788        C  0.38892790  0.37061607  0.75278650    -0.17800
C789        C  0.38929900  0.38176384  0.77170157     0.10500
C790        C  0.34887652  0.37098482  0.78076494    -0.06600
C791        C  0.30890432  0.34814949  0.77046902    -0.17900
C792        C  0.30847937  0.33549203  0.75173693     0.10500
S793        S  0.44225908  0.40705279  0.78371411    -0.32800
S794        S  0.25516549  0.30384506  0.74049610    -0.32900
H795        H  0.27055374  0.31020220  0.72169425     0.28500
H796        H  0.42485354  0.39144636  0.80204633     0.28500
H797        H  0.42001003  0.37755897  0.74625912     0.19100
H798        H  0.27764521  0.34081576  0.77688878     0.19100
C799        C  0.46715523  0.10721358  0.27536908    -0.06700
C800        C  0.45803951  0.13414752  0.28677528    -0.17800
C801        C  0.97970621  0.15148595  0.30433032     0.10500
C802        C  0.00726420  0.13603177  0.31206398    -0.06600
C803        C  0.51534448  0.10559745  0.30026756    -0.17900
C804        C  0.49793698  0.09468554  0.28194626     0.10500
S805        S  0.96911532  0.19010693  0.31623100    -0.32800
S806        S  0.51934705  0.06926373  0.26646357    -0.32900
H807        H  0.54488060  0.06160895  0.28013196     0.28500
H808        H  0.01073857  0.21287240  0.32511963     0.28500
H809        H  0.93803933  0.14831191  0.28095367     0.19100
H810        H  0.53856097  0.09543390  0.30535557     0.19100
C811        C  0.34591960  0.01547445  0.27118452    -0.06700
C812        C  0.35025621  0.05042179  0.28202154    -0.17800
C813        C  0.34361451  0.04572412  0.30173151     0.10500
C814        C  0.32990024  0.50541555  0.31116929    -0.06600
C815        C  0.31243424  0.46879899  0.29924484    -0.17900
C816        C  0.32329479  0.47406318  0.27981906     0.10500
S817        S  0.35555981  0.09409989  0.31434614    -0.32800
S818        S  0.31052877  0.42563144  0.26691899    -0.32900
H819        H  0.31916635  0.44494243  0.24856463     0.28500
H820        H  0.37719721  0.08638475  0.32956038     0.28500
H821        H  0.36326232  0.08272692  0.27542975     0.19100
H822        H  0.29837648  0.43616764  0.30569151     0.19100
C823        C  0.98381941  0.29661217  0.31039872    -0.06700
C824        C  0.01883968  0.30333161  0.29808083    -0.17800
C825        C  0.51486168  0.30179541  0.27713403     0.10500
C826        C  0.47172676  0.28551769  0.26992046    -0.06600
C827        C  0.43587924  0.26587330  0.28262800    -0.17900
C828        C  0.44235021  0.27465878  0.30189983     0.10500
S829        S  0.56338072  0.32549143  0.26205885    -0.32800
S830        S  0.89158345  0.26624495  0.31491935    -0.32900
H831        H  0.91417110  0.30674004  0.32382200     0.28500
H832        H  0.54099562  0.30896901  0.24486894     0.28500
H833        H  0.05215860  0.31703392  0.30367661     0.19100
H834        H  0.40228099  0.25077830  0.27717005     0.19100
C835        C  0.39355838  0.33541699  0.27167668    -0.06700
C836        C  0.35357533  0.31174998  0.28196451    -0.17800
C837        C  0.34773524  0.32729001  0.29931952     0.10500
C838        C  0.38500672  0.36269844  0.30801995    -0.06600
C839        C  0.42537585  0.38327000  0.29824747    -0.17900
C840        C  0.42657650  0.37570541  0.27908888     0.10500
S841        S  0.29260740  0.30019899  0.30946735    -0.32800
S842        S  0.46143478  0.42298162  0.26388786    -0.32900
H843        H  0.48955850  0.44991153  0.27821789     0.28500
H844        H  0.29782813  0.33514524  0.32044676     0.28500
H845        H  0.32664299  0.28180883  0.27646769     0.19100
H846        H  0.45394089  0.41048449  0.30466178     0.19100
C847        C  0.19350825  0.01028383  0.27198220    -0.06700
C848        C  0.17070944  0.46500484  0.27714869    -0.17800
C849        C  0.16089411  0.44861197  0.29595623     0.10500
C850        C  0.16631801  0.47745793  0.31084108    -0.06600
C851        C  0.19751710  0.02466997  0.30567198    -0.17900
C852        C  0.21395568  0.03898809  0.28721006     0.10500
S853        S  0.13883628  0.39058656  0.29996634    -0.32800
S854        S  0.26158004  0.09295051  0.28412421    -0.32900
H855        H  0.27913860  0.08189058  0.26873564     0.28500
H856        H  0.14807591  0.39314605  0.31955648     0.28500
H857        H  0.15893201  0.44255861  0.26548948     0.19100
H858        H  0.20529981  0.04905597  0.31622315     0.19100
C859        C  0.18334382  0.14124827  0.31419214    -0.06700
C860        C  0.21248039  0.17022671  0.30026178    -0.17800
C861        C  0.20962168  0.15793727  0.28129187     0.10500
C862        C  0.18180354  0.11323106  0.27638522    -0.06600
C863        C  0.15412616  0.08403681  0.29092457    -0.17900
C864        C  0.15371687  0.09766788  0.30935532     0.10500
S865        S  0.23662191  0.20290999  0.26427588    -0.32800
S866        S  0.11360762  0.05934702  0.32645051    -0.32900
H867        H  0.08768613  0.02628756  0.31363825     0.28500
H868        H  0.20364105  0.18304443  0.25031435     0.28500
H869        H  0.23344547  0.20437119  0.30368096     0.19100
H870        H  0.13268772  0.04984513  0.28840368     0.19100
C871        C  0.31356133  0.50082955  0.45282766    -0.06700
C872        C  0.29918963  0.45743906  0.44832775    -0.17800
C873        C  0.29470274  0.44492886  0.42950389     0.10500
C874        C  0.31460504  0.47771840  0.41457080    -0.06600
C875        C  0.33661019  0.52199822  0.41973637    -0.17900
C876        C  0.33482596  0.53391875  0.43844203     0.10500
S877        S  0.25673291  0.38682159  0.42658220    -0.32800
S878        S  0.35552103  0.09566996  0.44216791    -0.32900
H879        H  0.38726350  0.09948684  0.45562595     0.28500
H880        H  0.23538722  0.39135274  0.41034796     0.28500
H881        H  0.28349755  0.43202059  0.45932881     0.19100
H882        H  0.35281543  0.54771292  0.40894350     0.19100
C883        C  0.20124974  0.50638738  0.44825419    -0.06700
C884        C  0.21684769  0.49305648  0.43290411    -0.17800
C885        C  0.19500756  0.48171113  0.41562461     0.10500
C886        C  0.15821447  0.48739504  0.41234256    -0.06600
C887        C  0.14428134  0.50467571  0.42689234    -0.17900
C888        C  0.16520380  0.51389088  0.44492425     0.10500
S889        S  0.21134439  0.45339429  0.39949274    -0.32800
S890        S  0.14346300  0.02921553  0.46318198    -0.32900
H891        H  0.11180335  0.03357536  0.45205119     0.28500
H892        H  0.16916954  0.41655042  0.39729702     0.28500
H893        H  0.24425063  0.48745272  0.43463318     0.19100
H894        H  0.11745575  0.00782696  0.42362995     0.19100
C895        C  0.20764215  0.17807105  0.45442650    -0.06700
C896        C  0.24111593  0.18351248  0.44163432    -0.17800
C897        C  0.23082769  0.16992773  0.42285870     0.10500
C898        C  0.18575177  0.14597581  0.41747061    -0.06600
C899        C  0.15370192  0.12791530  0.43226339    -0.17900
C900        C  0.16357176  0.14627844  0.45034679     0.10500
S901        S  0.27669821  0.18652500  0.40669505    -0.32800
S902        S  0.11803677  0.13194193  0.46643673    -0.32900
H903        H  0.14316634  0.14353166  0.48323332     0.28500
H904        H  0.26004737  0.20228166  0.39212370     0.28500
H905        H  0.27571723  0.20238779  0.44558760     0.19100
H906        H  0.11905277  0.10689353  0.42864593     0.19100
C907        C  0.33141893  0.32189806  0.40747705    -0.06700
C908        C  0.36341659  0.33504190  0.42196900    -0.17800
C909        C  0.35111515  0.32135039  0.44106174     0.10500
C910        C  0.30585856  0.29259050  0.44582321    -0.06600
C911        C  0.27450555  0.28005455  0.43109414    -0.17900
C912        C  0.28651972  0.29305719  0.41224742     0.10500
S913        S  0.39370786  0.34675710  0.45873610    -0.32800
S914        S  0.24207427  0.27374046  0.39504971    -0.32900
H915        H  0.26793594  0.27537223  0.37953666     0.28500
H916        H  0.36551240  0.34797228  0.47259950     0.28500
H917        H  0.39758498  0.35924881  0.41867357     0.19100
H918        H  0.23979464  0.25872584  0.43397514     0.19100
C919        C  0.96145097  0.30594445  0.41418006    -0.06700
C920        C  0.97002004  0.33705754  0.42840547    -0.17800
C921        C  0.97970542  0.32951897  0.44718092     0.10500
C922        C  0.97087874  0.28718389  0.45275270    -0.06600
C923        C  0.94603732  0.25305338  0.44026287    -0.17900
C924        C  0.94455044  0.26172137  0.42078191     0.10500
S925        S  0.00860975  0.37607753  0.46221223    -0.32800
S926        S  0.42502269  0.21278585  0.40531364    -0.32900
H927        H  0.95907951  0.23335688  0.39338567     0.28500
H928        H  0.99757891  0.35237379  0.47961930     0.28500
H929        H  0.97993340  0.37056112  0.42404810     0.19100
H930        H  0.43349041  0.21780320  0.44429346     0.19100
C931        C  0.99760539  0.19393496  0.44829502    -0.06700
C932        C  0.01360845  0.22332984  0.43253016    -0.17800
C933        C  0.01880886  0.21066377  0.41469288     0.10500
C934        C  0.00952136  0.16740143  0.41219099    -0.06600
C935        C  0.99318301  0.13726217  0.42769205    -0.17900
C936        C  0.48587363  0.14812383  0.44558900     0.10500
S937        S  0.04602285  0.25348379  0.39662806    -0.32800
S938        S  0.47373138  0.11032107  0.46555172    -0.32900
H939        H  0.45367287  0.07198752  0.45487665     0.28500
H940        H  0.02349261  0.22683720  0.38124621     0.28500
H941        H  0.02300698  0.25725482  0.43386693     0.19100
H942        H  0.48457975  0.10184442  0.42573834     0.19100
C943        C  0.52695025  0.14509890  0.12228365    -0.06700
C944        C  0.52567725  0.11327229  0.11015363    -0.17800
C945        C  0.53488240  0.12249781  0.09069660     0.10500
C946        C  0.54778947  0.16497168  0.08337645    -0.06600
C947        C  0.06055533  0.20550569  0.09672663    -0.17900
C948        C  0.54804313  0.18906455  0.11571432     0.10500
S949        S  0.52395814  0.07767497  0.07571158    -0.32800
S950        S  0.04826219  0.23820247  0.12976962    -0.32900
H951        H  0.04594270  0.21805878  0.14761904     0.28500
H952        H  0.49343658  0.08272560  0.06409009     0.28500
H953        H  0.51229302  0.07971999  0.11533515     0.19100
H954        H  0.07020479  0.23817136  0.09116922     0.19100
C955        C  0.34906551  0.33669034  0.07431344    -0.06700
C956        C  0.39301859  0.36321590  0.08020312    -0.17800
C957        C  0.40277388  0.37307279  0.09955805     0.10500
C958        C  0.36857053  0.35089894  0.11343473    -0.06600
C959        C  0.32454966  0.33109189  0.10717394    -0.17900
C960        C  0.31477865  0.32727261  0.08766571     0.10500
S961        S  0.45839546  0.41394678  0.10609962    -0.32800
S962        S  0.25728108  0.30313444  0.08073936    -0.32900
H963        H  0.26633390  0.31514312  0.06135529     0.28500
H964        H  0.47611750  0.42480834  0.08757786     0.28500
H965        H  0.41972514  0.37333006  0.07001675     0.19100
H966        H  0.29767972  0.31654258  0.11744895     0.19100
C967        C  0.44596517  0.30569217  0.11209173    -0.06700
C968        C  0.48420804  0.33416312  0.10140959    -0.17800
C969        C  0.98848630  0.32220018  0.08296955     0.10500
C970        C  0.45597780  0.28550460  0.07452708    -0.06600
C971        C  0.41592952  0.26115247  0.08431338    -0.17900
C972        C  0.41438531  0.26597601  0.10379954     0.10500
S973        S  0.04172955  0.35637470  0.07176220    -0.32800
S974        S  0.38026372  0.21677161  0.11815288    -0.32900
H975        H  0.35295072  0.19088598  0.10339842     0.28500
H976        H  0.04247757  0.32360681  0.06112919     0.28500
H977        H  0.00827525  0.36324644  0.10735053     0.19100
H978        H  0.38991512  0.23192549  0.07782357     0.19100
C979        C  0.17737225  0.10057992  0.11100369    -0.06700
C980        C  0.19322767  0.08574384  0.09619936    -0.17800
C981        C  0.19509545  0.09990334  0.07744602     0.10500
C982        C  0.18489137  0.13311732  0.07322388    -0.06600
C983        C  0.16875531  0.14839569  0.08765744    -0.17900
C984        C  0.16579641  0.13320370  0.10656276     0.10500
S985        S  0.21697938  0.08007167  0.05932347    -0.32800
S986        S  0.15450975  0.16202627  0.12443597    -0.32900
H987        H  0.18260953  0.15871571  0.13819651     0.28500
H988        H  0.22772086  0.05381091  0.07124618     0.28500
H989        H  0.20341974  0.06180601  0.09888112     0.19100
H990        H  0.16380348  0.17609725  0.08458353     0.19100
C991        C  0.40844345  0.05610399  0.11140742    -0.06700
C992        C  0.41794558  0.02926188  0.10017838    -0.17800
C993        C  0.39965927  0.01729245  0.08201255     0.10500
C994        C  0.37394176  0.03488738  0.07445104    -0.06600
C995        C  0.36765813  0.06459623  0.08493568    -0.17900
C996        C  0.38183286  0.07289474  0.10368699     0.10500
S997        S  0.41382525  0.47845889  0.07044549    -0.32800
S998        S  0.35825177  0.09859389  0.11757416    -0.32900
H999        H  0.35057317  0.07074505  0.13357966     0.28500
H1000       H  0.37102890  0.45288937  0.06292787     0.28500
H1001       H  0.43866435  0.01660650  0.10580321     0.19100
H1002       H  0.34589121  0.07623169  0.07940462     0.19100
C1003       C  0.15295030  0.94613924  0.08240427    -0.06700
C1004       C  0.13962166  0.97776728  0.08356520    -0.17800
C1005       C  0.12951428  0.98782835  0.10111571     0.10500
C1006       C  0.14622934  0.97710512  0.11758615    -0.06600
C1007       C  0.15039538  0.93942397  0.11687846    -0.17900
C1008       C  0.14830080  0.92073228  0.09917757     0.10500
S1009       S  0.09226821  0.00978544  0.10138409    -0.32800
S1010       S  0.14421591  0.86751693  0.09863991    -0.32900
H1011       H  0.13646652  0.86250440  0.07895962     0.28500
H1012       H  0.07226682  0.98963353  0.11882477     0.28500
H1013       H  0.13847318  0.99615566  0.07122607     0.19100
H1014       H  0.15556559  0.92503693  0.12980667     0.19100
C1015       C  0.17770821  0.14785594  0.93518674    -0.06700
C1016       C  0.16595489  0.10899637  0.94591133    -0.17800
C1017       C  0.18174706  0.10979286  0.96449236     0.10500
C1018       C  0.21195034  0.15026526  0.97249509    -0.06600
C1019       C  0.22472329  0.18896746  0.96161995    -0.17900
C1020       C  0.20812677  0.18847778  0.94328618     0.10500
S1021       S  0.15919265  0.05827503  0.97749427    -0.32800
S1022       S  0.22623690  0.24043509  0.93068600    -0.32900
H1023       H  0.24903347  0.26791104  0.94582797     0.28500
H1024       H  0.19294510  0.07112092  0.99113717     0.28500
H1025       H  0.14217090  0.07759729  0.94026101     0.19100
H1026       H  0.24713141  0.22012634  0.96785209     0.19100
C1027       C  0.06469222  0.14072354  0.94414670    -0.06700
C1028       C  0.07758926  0.18299815  0.95029082    -0.17800
C1029       C  0.07272946  0.19057774  0.96907502     0.10500
C1030       C  0.04896526  0.15477609  0.98178531    -0.06600
C1031       C  0.03536174  0.11225923  0.97594008    -0.17900
C1032       C  0.04445818  0.10485373  0.95750759     0.10500
S1033       S  0.09496732  0.24678251  0.97570610    -0.32800
S1034       S  0.02928768  0.04912292  0.95252626    -0.32900
H1035       H  0.06863245  0.06045430  0.94273036     0.28500
H1036       H  0.10075999  0.23949254  0.99501700     0.28500
H1037       H  0.09219797  0.21094070  0.94045586     0.19100
H1038       H  0.01643221  0.08464061  0.98562881     0.19100
C1039       C  0.37404808  0.33579373  0.93591552    -0.06700
C1040       C  0.40586276  0.36265981  0.94922736    -0.17800
C1041       C  0.40755129  0.34633349  0.96756619     0.10500
C1042       C  0.37453841  0.30314924  0.97315738    -0.06600
C1043       C  0.34674064  0.27585706  0.95848912    -0.17900
C1044       C  0.34915782  0.29103669  0.93983814     0.10500
S1045       S  0.45263574  0.38098133  0.98285976    -0.32800
S1046       S  0.32269711  0.25189529  0.92137705    -0.32900
H1047       H  0.34938239  0.27948819  0.90639834     0.28500
H1048       H  0.46196076  0.42095693  0.97382487     0.28500
H1049       H  0.42818764  0.39681887  0.94545580     0.19100
H1050       H  0.32183949  0.24226284  0.96112577     0.19100
C1051       C  0.35735390  0.43898806  0.94399159    -0.06700
C1052       C  0.36696708  0.48297389  0.94417448    -0.17800
C1053       C  0.36328017  0.50154879  0.96093474     0.10500
C1054       C  0.35496271  0.47764380  0.97830590    -0.06600
C1055       C  0.35278851  0.43700698  0.97858070    -0.17900
C1056       C  0.34704694  0.41502960  0.96169604     0.10500
S1057       S  0.36514140  0.06315222  0.95803085    -0.32800
S1058       S  0.31635696  0.35598642  0.96392687    -0.32900
H1059       H  0.29964834  0.35185161  0.98244565     0.28500
H1060       H  0.37238040  0.07260284  0.97743888     0.28500
H1061       H  0.37389978  0.50186663  0.93094718     0.19100
H1062       H  0.34515104  0.41872785  0.99199934     0.19100
C1063       C  0.03248704  0.33048731  0.93812876    -0.06700
C1064       C  0.05637060  0.33543402  0.95518714    -0.17800
C1065       C  0.03563959  0.31485512  0.97241556     0.10500
C1066       C  0.98931229  0.28662310  0.97307345    -0.09000
C1067       C  0.96511181  0.28007879  0.95605542    -0.17900
C1068       C  0.98599780  0.30090815  0.93870799     0.10500
S1069       S  0.06927819  0.32419346  0.99355390    -0.32800
S1070       S  0.95185733  0.28437768  0.91771008    -0.32900
H1071       H  0.98589330  0.28887997  0.90557101     0.28500
H1072       H  0.11107966  0.35033721  0.98497063     0.28500
H1073       H  0.09169567  0.35709501  0.95556657     0.19100
H1074       H  0.93000770  0.25675381  0.95588267     0.19100
C1075       C  0.13625629  0.44974957  0.94254854    -0.06700
C1076       C  0.18078005  0.47812775  0.94664008    -0.17800
C1077       C  0.19377936  0.48872799  0.96545330     0.10500
C1078       C  0.16326317  0.46388583  0.98031574    -0.06600
C1079       C  0.11793755  0.44131683  0.97598162    -0.17900
C1080       C  0.10434705  0.43874225  0.95704209     0.10500
S1081       S  0.24801588  0.03342819  0.96829277    -0.32800
S1082       S  0.04757673  0.42358584  0.95166831    -0.32900
H1083       H  0.03249637  0.41293842  0.97051622     0.28500
H1084       H  0.24114410  0.03957152  0.98733516     0.28500
H1085       H  0.20524238  0.49157663  0.93531407     0.19100
H1086       H  0.09340122  0.42359390  0.98690817     0.19100
C1087       C  0.07389158  0.91661455  0.89557313     0.85900
C1088       C  0.03874183  0.87697643  0.90769140    -0.54300
C1089       C  0.05635023  0.85868979  0.92039560     0.08800
C1090       C  0.10755500  0.88206829  0.91901147     0.19800
C1091       C  0.10441259  0.94850741  0.91032375    -0.55100
C1092       C  0.12137967  0.93070243  0.92289112     0.08900
C1093       C  0.10257934  0.90084169  0.88618515    -0.54600
C1094       C  0.11804392  0.88031319  0.89794376     0.09500
H1095       H  0.00420662  0.86870615  0.90774701     0.14000
H1096       H  0.12408998  0.86845027  0.92828120    -0.00300
H1097       H  0.10769096  0.98056531  0.91226680     0.14300
H1098       H  0.11478265  0.90988933  0.87186541     0.14100
C1099       C  0.39961129  0.92475036  0.89640373     0.85900
C1100       C  0.39591093  0.95337769  0.91175282    -0.54300
C1101       C  0.36100814  0.93036998  0.92436670     0.08800
C1102       C  0.33226401  0.88165537  0.91930696     0.19800
C1103       C  0.40134931  0.88802746  0.90783628    -0.55100
C1104       C  0.36714476  0.86592027  0.92010862     0.08900
C1105       C  0.35479633  0.90213372  0.88660982    -0.54600
C1106       C  0.31910307  0.88184324  0.89819196     0.09500
H1107       H  0.42105854  0.98746841  0.91350478     0.14000
H1108       H  0.30205171  0.86176354  0.92787638    -0.00300
H1109       H  0.43040555  0.88384687  0.90827894     0.14300
H1110       H  0.35129296  0.89631714  0.87172726     0.14100
C1111       C  0.08828810  0.60588264  0.89675158     0.85900
C1112       C  0.13127010  0.61150789  0.90638954    -0.54300
C1113       C  0.15119103  0.64653461  0.91822440     0.08800
C1114       C  0.12728391  0.67323551  0.91843058     0.19800
C1115       C  0.05907416  0.60375807  0.91340718    -0.55100
C1116       C  0.08012574  0.63847920  0.92526628     0.08900
C1117       C  0.10086110  0.64977752  0.88680649    -0.54600
C1118       C  0.12344629  0.68546501  0.89762334     0.09500
H1119       H  0.14152455  0.58696905  0.90572630     0.14000
H1120       H  0.14325487  0.70207749  0.92745335    -0.00300
H1121       H  0.02580256  0.57653044  0.91592038     0.14300
H1122       H  0.08889659  0.65230419  0.87290312     0.14100
O1123       O  0.26272959  0.88725036  0.88027915    -0.82400
C1124       C  0.15789480  0.73886827  0.83872298     0.97000
O1125       O  0.19834816  0.76689629  0.84104875    -0.71500
O1126       O  0.26933135  0.84381614  0.84941494    -0.75100
Al1127     Al  0.22209151  0.79561979  0.86454031     1.49000
C1128       C  0.27062412  0.87541688  0.83949987     0.92200
O1129       O  0.16321248  0.87875433  0.85011575    -0.81300
O1130       O  0.11533912  0.82250377  0.88005988    -0.74900
Al1131     Al  0.21018564  0.87696316  0.86532693     1.90100
O1132       O  0.12080083  0.81065553  0.84168245    -0.73900
O1133       O  0.12700554  0.75266864  0.88748059    -0.73800
O1134       O  0.12823782  0.73989243  0.84880143    -0.79500
O1135       O  0.18194030  0.74241961  0.87917838    -0.77700
O1136       O  0.18665889  0.81891233  0.86489165    -1.13800
O1137       O  0.25056720  0.82127868  0.88805923    -0.73000
C1138       C  0.27378865  0.86230930  0.88948944     0.97700
C1139       C  0.13219372  0.85069483  0.83983116     0.94100
Al1140     Al  0.12782601  0.78430663  0.86464358     1.55600
O1141       O  0.24162661  0.88648556  0.84198974    -0.77600
C1142       C  0.14630849  0.73020412  0.88849947     0.98300
C1143       C  0.13928157  0.85668058  0.88954907     0.93200
O1144       O  0.18110572  0.87493423  0.88863359    -0.82900
N1145       N  0.25477040  0.97100844  0.00159991    -0.37200
N1146       N  0.18628823  0.94781010  0.03105289    -0.57800
N1147       N  0.25899391  0.47355861  0.05726391    -0.37200
N1148       N  0.32552141  0.99782265  0.02622915    -0.57800
C1149       C  0.21424309  0.94565791  0.99426418     0.26400
C1150       C  0.28378594  0.96639027  0.99071722     0.26400
C1151       C  0.22465216  0.45605227  0.06997412     0.26400
C1152       C  0.29627171  0.48110952  0.06676780     0.26400
C1153       C  0.16539453  0.95348585  0.01582273     0.35000
C1154       C  0.16433587  0.94755739  0.04672207     0.35000
C1155       C  0.34942218  0.00953301  0.01004125     0.35000
C1156       C  0.35371828  0.01907888  0.04028825     0.35000
C1157       C  0.21681304  0.92327892  0.97894339    -0.22500
C1158       C  0.26088657  0.93677431  0.97652119    -0.22500
C1159       C  0.24162311  0.45301992  0.08769085    -0.22500
C1160       C  0.28576657  0.46746136  0.08551965    -0.22500
C1161       C  0.12854665  0.95544413  0.02167880    -0.23500
C1162       C  0.12657616  0.94941389  0.04120811    -0.23500
C1163       C  0.39387004  0.03780213  0.01378127    -0.23500
C1164       C  0.39655093  0.04449597  0.03313633    -0.23500
C1165       C  0.17964918  0.95430174  0.99708608    -0.18900
C1166       C  0.33043155  0.99148276  0.99253410    -0.18900
C1167       C  0.34068470  0.50720230  0.06016252    -0.18900
C1168       C  0.18024260  0.44797874  0.06637100    -0.18900
H1169       H  0.19026357  0.90323355  0.96930615     0.14000
H1170       H  0.27412374  0.92788359  0.96477130     0.14000
H1171       H  0.22618137  0.44392602  0.10144160     0.14000
H1172       H  0.30832412  0.47047408  0.09691340     0.14000
H1173       H  0.10507299  0.96002297  0.01307935     0.12300
H1174       H  0.10031045  0.94727395  0.05004235     0.12300
H1175       H  0.42113034  0.05195388  0.00370390     0.12300
H1176       H  0.42654768  0.06456236  0.04107318     0.12300
H1177       H  0.26250681  0.99630339  0.01092521     0.25600
H1178       H  0.25873801  0.99008253  0.04320526     0.25600
C1179       C  0.12798819  0.53355028  0.15846950     0.85900
C1180       C  0.13241150  0.56635532  0.14227980    -0.54300
C1181       C  0.16754129  0.57743001  0.12997888     0.08800
C1182       C  0.19419747  0.55431239  0.13556419     0.19800
C1183       C  0.12465945  0.49421964  0.14818420    -0.55100
C1184       C  0.15743058  0.50441644  0.13544230     0.08900
C1185       C  0.17286805  0.55396555  0.16799506    -0.54600
C1186       C  0.20818045  0.56747346  0.15644800     0.09500
H1187       H  0.10723027  0.57564644  0.13984654     0.14000
H1188       H  0.22375126  0.56271857  0.12674936    -0.00300
H1189       H  0.09505347  0.96210741  0.14753522     0.14300
H1190       H  0.17704334  0.55736310  0.18288329     0.14100
C1191       C  0.43839635  0.86561374  0.15675648     0.85900
C1192       C  0.46243872  0.85495715  0.14080784    -0.54300
C1193       C  0.43328291  0.81938192  0.12983182     0.08800
C1194       C  0.38443588  0.79974903  0.13624467     0.19800
C1195       C  0.40327973  0.87218455  0.14583231    -0.55100
C1196       C  0.37723772  0.83954212  0.13410522     0.08900
C1197       C  0.41416353  0.82177844  0.16756725    -0.54600
C1198       C  0.38520742  0.78670271  0.15741156     0.09500
H1199       H  0.49788845  0.87437515  0.13815964     0.14000
H1200       H  0.35808840  0.77294701  0.12816998    -0.00300
H1201       H  0.40608499  0.90430941  0.14402126     0.14300
H1202       H  0.43028756  0.81625832  0.17961810     0.14100
C1203       C  0.46377138  0.56332129  0.16007667     0.85900
C1204       C  0.43905542  0.54171597  0.14183640    -0.54300
C1205       C  0.43013357  0.56888159  0.13031194     0.08800
C1206       C  0.44776482  0.61531106  0.13821971     0.19800
C1207       C  0.50563510  0.60562528  0.15300464    -0.55100
C1208       C  0.49769262  0.63145308  0.14062511     0.08900
C1209       C  0.43355720  0.57793783  0.16892188    -0.54600
C1210       C  0.42634983  0.60668291  0.15817345     0.09500
H1211       H  0.42996767  0.50842126  0.13832152     0.14000
H1212       H  0.44192024  0.63825191  0.12910964    -0.00300
H1213       H  0.53875855  0.60969869  0.15418744     0.14300
H1214       H  0.41182795  0.55995600  0.18064470     0.14100
O1215       O  0.39953297  0.73418310  0.17427902    -0.82400
C1216       C  0.25726027  0.60632845  0.21520945     0.97000
O1217       O  0.27755839  0.64724440  0.21230493    -0.71500
O1218       O  0.34424346  0.72673885  0.20481198    -0.75100
Al1219     Al  0.30511022  0.67685644  0.18896877     1.49000
C1220       C  0.37658896  0.73190897  0.21518503     0.92200
O1221       O  0.41014281  0.64421306  0.20493282    -0.81300
O1222       O  0.36126993  0.59322678  0.17447176    -0.74900
Al1223     Al  0.39813483  0.68503475  0.18915569     1.90100
O1224       O  0.34249537  0.59342751  0.21210523    -0.73900
O1225       O  0.28263623  0.58732109  0.16563243    -0.73800
O1226       O  0.26373204  0.58197697  0.20430758    -0.79500
O1227       O  0.25767978  0.63110493  0.17372054    -0.77700
O1228       O  0.33941289  0.65206193  0.18853982    -1.13800
O1229       O  0.33040322  0.71180524  0.16597364    -0.73000
C1230       C  0.37109244  0.74106535  0.16539784     0.97700
C1231       C  0.38373484  0.61057469  0.21488588     0.94100
Al1232     Al  0.31472395  0.59398613  0.18892603     1.55600
O1233       O  0.39509275  0.70939835  0.21221999    -0.77600
C1234       C  0.25302186  0.59822994  0.16454821     0.98300
C1235       C  0.39578071  0.62147873  0.16557038     0.93200
O1236       O  0.40738006  0.66185596  0.16608326    -0.82900
N1237       N  0.98665976  0.70173249  0.00129420    -0.37200
N1238       N  0.01715961  0.66592916  0.03177047    -0.57800
N1239       N  0.49100824  0.71566655  0.05489589    -0.37200
N1240       N  0.95830160  0.74848958  0.02402869    -0.57800
C1241       C  0.98909828  0.66874316  0.99319445     0.26400
C1242       C  0.96610486  0.71572075  0.98882202     0.26400
C1243       C  0.49386472  0.68567822  0.06637226     0.26400
C1244       C  0.46079295  0.72388405  0.06278748     0.26400
C1245       C  0.03706855  0.65972688  0.01695566     0.35000
C1246       C  0.04143896  0.66897121  0.04734775     0.35000
C1247       C  0.96734256  0.77297397  0.00781065     0.35000
C1248       C  0.96073414  0.77398832  0.03844313     0.35000
C1249       C  0.96727316  0.65982561  0.97582323    -0.22500
C1250       C  0.95325604  0.68991360  0.97295561    -0.22500
C1251       C  0.46362668  0.67266829  0.08105292    -0.22500
C1252       C  0.44283953  0.69682023  0.07889906    -0.22500
C1253       C  0.07407429  0.65754618  0.02310515    -0.23500
C1254       C  0.07689729  0.66340529  0.04261871    -0.23500
C1255       C  0.97441205  0.81422464  0.01185518    -0.23500
C1256       C  0.96892223  0.81454969  0.03132959    -0.23500
C1257       C  0.02159698  0.65719660  0.99818847    -0.18900
C1258       C  0.96968499  0.75727690  0.98979613    -0.18900
C1259       C  0.45673163  0.76093683  0.05760312    -0.18900
C1260       C  0.52902832  0.67677904  0.06574304    -0.18900
H1261       H  0.96600841  0.63725477  0.96538467     0.14000
H1262       H  0.93829459  0.69412330  0.96007920     0.14000
H1263       H  0.45914308  0.65015984  0.09275717     0.14000
H1264       H  0.41839987  0.69465279  0.08871767     0.14000
H1265       H  0.09688749  0.65329467  0.01433118     0.12300
H1266       H  0.60529067  0.67000115  0.05263091     0.12300
H1267       H  0.98412867  0.84140756  0.00192468     0.12300
H1268       H  0.97278327  0.84201320  0.03933644     0.12300
H1269       H  0.00669539  0.72016328  0.01241150     0.25600
H1270       H  0.01357825  0.73376740  0.04421145     0.25600
N1271       N  0.29804435  0.72519124  0.00162963    -0.37200
N1272       N  0.22729448  0.66885278  0.02497589    -0.57800
N1273       N  0.27347959  0.73450449  0.05239514    -0.37200
N1274       N  0.34975710  0.79402277  0.02836244    -0.57800
C1275       C  0.27902080  0.68585677  0.99344219     0.26400
C1276       C  0.34114969  0.74696789  0.99653896     0.26400
C1277       C  0.24902866  0.69745245  0.06288312     0.26400
C1278       C  0.30704053  0.76210834  0.06358149     0.26400
C1279       C  0.20739794  0.65293895  0.00829705     0.35000
C1280       C  0.19579211  0.65443165  0.03836466     0.35000
C1281       C  0.36161222  0.81504032  0.01123815     0.35000
C1282       C  0.34789652  0.82137727  0.04086713     0.35000
C1283       C  0.31061164  0.68089582  0.98382467    -0.22500
C1284       C  0.35048308  0.71923536  0.98633862    -0.22500
C1285       C  0.26879786  0.70085150  0.08054182    -0.22500
C1286       C  0.30534713  0.74183035  0.08096759    -0.22500
C1287       C  0.16183246  0.62776458  0.01098789    -0.23500
C1288       C  0.15465001  0.62730461  0.03042504    -0.23500
C1289       C  0.36705722  0.85677944  0.01293659    -0.23500
C1290       C  0.35984160  0.86131515  0.03195149    -0.23500
C1291       C  0.23271462  0.65985339  0.99173348    -0.18900
C1292       C  0.36365723  0.79323922  0.99479401    -0.18900
C1293       C  0.33223894  0.80737643  0.05962957    -0.18900
C1294       C  0.20679088  0.66319793  0.05758077    -0.18900
H1295       H  0.30491734  0.65407393  0.97489089     0.14000
H1296       H  0.38100412  0.72807983  0.97911511     0.14000
H1297       H  0.25706560  0.67740363  0.09235005     0.14000
H1298       H  0.32642208  0.75620830  0.09314690     0.14000
H1299       H  0.13673137  0.61045238  0.00039646     0.12300
H1300       H  0.12311292  0.60949742  0.03778796     0.12300
H1301       H  0.37313879  0.88066486  0.00169875     0.12300
H1302       H  0.35996616  0.88923741  0.03809042     0.12300
H1303       H  0.28058747  0.73982710  0.00685779     0.25600
H1304       H  0.26399294  0.74328557  0.03959994     0.25600
C1305       C  0.45582647  0.71513518  0.49537044     0.85900
C1306       C  0.45448230  0.75322477  0.48443798    -0.54300
C1307       C  0.98835214  0.77685302  0.47036895     0.08800
C1308       C  0.02269051  0.76069312  0.47080044     0.19800
C1309       C  0.45771854  0.68690615  0.47939909    -0.55100
C1310       C  0.99367602  0.71129387  0.46608054     0.08900
C1311       C  0.50160343  0.73470571  0.50437106    -0.54600
C1312       C  0.03739446  0.76062512  0.49166410     0.09500
H1313       H  0.42472230  0.75622996  0.48401910     0.14000
H1314       H  0.05175318  0.78046986  0.46140067    -0.00300
H1315       H  0.43133867  0.65352215  0.47740542     0.14300
H1316       H  0.50684013  0.72565572  0.51840115     0.14100
C1317       C  0.28322152  0.72896403  0.49444200     0.85900
C1318       C  0.24146741  0.69168724  0.48526668    -0.54300
C1319       C  0.22117075  0.70441669  0.47215375     0.08800
C1320       C  0.24098342  0.75500420  0.47142139     0.19800
C1321       C  0.31179281  0.75715648  0.47741497    -0.55100
C1322       C  0.29003384  0.77201248  0.46524875     0.08900
C1323       C  0.26815049  0.75819860  0.50354226    -0.54600
C1324       C  0.24405106  0.77045250  0.49216011     0.09500
H1325       H  0.23424460  0.65778996  0.48579704     0.14000
H1326       H  0.22169909  0.76576612  0.46227371    -0.00300
H1327       H  0.34449638  0.76167293  0.47459993     0.14300
H1328       H  0.27881840  0.77135866  0.51739374     0.14100
C1329       C  0.27269085  0.54236015  0.49392818     0.85900
C1330       C  0.30790090  0.54083378  0.48126886    -0.54300
C1331       C  0.29375058  0.00927869  0.46907176     0.08800
C1332       C  0.24270003  0.97774208  0.47098426     0.19800
C1333       C  0.23811606  0.54180306  0.47953574    -0.55100
C1334       C  0.22403993  0.00881749  0.46675063     0.08900
C1335       C  0.25103099  0.49762677  0.50417498    -0.54600
C1336       C  0.23363662  0.96365692  0.49205985     0.09500
H1337       H  0.34280666  0.56569665  0.48122618     0.14000
H1338       H  0.22866910  0.94899951  0.46165433    -0.00300
H1339       H  0.23249448  0.56941452  0.47754974     0.14300
H1340       H  0.26177941  0.49358758  0.51813103     0.14100
O1341       O  0.23151456  0.89683985  0.50213210    -0.82400
C1342       C  0.08697083  0.77393369  0.54983154     0.97000
O1343       O  0.08756383  0.80524062  0.54005936    -0.71500
O1344       O  0.15807755  0.88161605  0.54731794    -0.75100
Al1345     Al  0.13446445  0.85207128  0.52424928     1.49000
C1346       C  0.19795550  0.91029779  0.55030143     0.92200
O1347       O  0.23482328  0.83884051  0.54846626    -0.81300
O1348       O  0.17948055  0.77384115  0.50139201    -0.74900
Al1349     Al  0.22967944  0.86517465  0.52523141     1.90100
O1350       O  0.19333032  0.77041539  0.54049305    -0.73900
O1351       O  0.09648238  0.75955303  0.50892639    -0.73800
O1352       O  0.11609115  0.76325956  0.54691112    -0.79500
O1353       O  0.10499293  0.82407985  0.50101753    -0.77700
O1354       O  0.17079022  0.82976672  0.52434909    -1.13800
O1355       O  0.17423636  0.90456751  0.50919517    -0.73000
C1356       C  0.21097153  0.91814715  0.50055337     0.97700
C1357       C  0.22313775  0.79880213  0.55096704     0.94100
Al1358     Al  0.14828724  0.77184905  0.52427732     1.55600
O1359       O  0.22873745  0.91028938  0.54073108    -0.77600
C1360       C  0.08339309  0.78275581  0.49980395     0.98300
C1361       C  0.22150029  0.79306101  0.50075265     0.93200
O1362       O  0.24415860  0.82732280  0.51038664    -0.82900
C1363       C  0.22122653  0.58558789  0.23023139     0.85900
C1364       C  0.22059986  0.61522647  0.24566570    -0.54300
C1365       C  0.18491743  0.59489498  0.25816283     0.08800
C1366       C  0.15432886  0.54538659  0.25350428     0.19800
C1367       C  0.22105879  0.54745463  0.24171184    -0.55100
C1368       C  0.18742778  0.52775504  0.25474648     0.08900
C1369       C  0.17617327  0.56782640  0.22098456    -0.54600
C1370       C  0.14092458  0.54474698  0.23244497     0.09500
H1371       H  0.24938325  0.64701751  0.24752810     0.14000
H1372       H  0.12421684  0.52558049  0.26220584    -0.00300
H1373       H  0.24926155  0.54197740  0.24181300     0.14300
H1374       H  0.17177221  0.58030271  0.20753679     0.14100
C1375       C  0.39983301  0.76957845  0.22896245     0.85900
C1376       C  0.43507221  0.76371972  0.24019630    -0.54300
C1377       C  0.46136573  0.79687631  0.25153834     0.08800
C1378       C  0.45339784  0.83597292  0.24912628     0.19800
C1379       C  0.37535445  0.78059469  0.24448506    -0.55100
C1380       C  0.40423719  0.81727315  0.25492291     0.08900
C1381       C  0.42399881  0.81288767  0.21784780    -0.54600
C1382       C  0.45278162  0.84774679  0.22806009     0.09500
H1383       H  0.43155581  0.73144692  0.24279895     0.14000
H1384       H  0.47939737  0.86319829  0.25713799    -0.00300
H1385       H  0.33971427  0.76193774  0.24667474     0.14300
H1386       H  0.40802878  0.81852509  0.20576910     0.14100
C1387       C  0.39970341  0.58723347  0.22909780     0.85900
C1388       C  0.35997457  0.54963321  0.23994283    -0.54300
C1389       C  0.37044482  0.52701357  0.25300835     0.08800
C1390       C  0.42022211  0.54050764  0.25236333     0.19800
C1391       C  0.43187339  0.61428018  0.24494163    -0.55100
C1392       C  0.44325328  0.58992361  0.25720521     0.08900
C1393       C  0.42391816  0.56625089  0.21980922    -0.54600
C1394       C  0.43337324  0.54003868  0.23129990     0.09500
H1395       H  0.32775504  0.54777151  0.24048790     0.14000
H1396       H  0.42757047  0.51965316  0.26218566    -0.00300
H1397       H  0.44339602  0.64890969  0.24659612     0.14300
H1398       H  0.44055410  0.57815696  0.20643363     0.14100
O1399       O  0.07138524  0.53930046  0.22322510    -0.82400
C1400       C  0.46330200  0.90291750  0.17084123     0.97000
O1401       O  0.99243688  0.90520257  0.18064715    -0.71500
O1402       O  0.06432125  0.97986450  0.17427085    -0.75100
Al1403     Al  0.03526552  0.95182507  0.19677918     1.49000
C1404       C  0.09111963  0.52033503  0.17280469     0.92200
O1405       O  0.01678638  0.55149938  0.17769658    -0.81300
O1406       O  0.44287350  0.98012696  0.22097014    -0.74900
Al1407     Al  0.04140868  0.54172133  0.20015861     1.90100
O1408       O  0.44583885  0.00093784  0.18223949    -0.73900
O1409       O  0.44222684  0.90316756  0.21200670    -0.73800
O1410       O  0.44886823  0.92902080  0.17383197    -0.79500
O1411       O  0.00722635  0.91965626  0.21922675    -0.77700
O1412       O  0.00827145  0.98378649  0.19749430    -1.13800
O1413       O  0.08567414  0.99050296  0.21219215    -0.73000
C1414       C  0.09603469  0.52220114  0.22347118     0.97700
C1415       C  0.47531201  0.53572802  0.17362139     0.94100
Al1416     Al  0.44982776  0.95536953  0.19754163     1.55600
O1417       O  0.08988533  0.54772547  0.18385850    -0.77600
C1418       C  0.46894384  0.89300963  0.22040657     0.98300
C1419       C  0.45963549  0.52041829  0.22307154     0.93200
O1420       O  0.99886323  0.54831723  0.21562290    -0.82900
N1421       N  0.10873850  0.66319809  0.33768482    -0.37200
N1422       N  0.04420295  0.65803154  0.36322026    -0.57800
N1423       N  0.10322714  0.65686848  0.39160284    -0.37200
N1424       N  0.16909374  0.66163374  0.36558654    -0.57800
C1425       C  0.08254662  0.67334810  0.32686554     0.26400
C1426       C  0.14703812  0.67732224  0.32806725     0.26400
C1427       C  0.07966428  0.67196163  0.40063103     0.26400
C1428       C  0.14182616  0.67167768  0.40109687     0.26400
C1429       C  0.01823131  0.64337092  0.34779558     0.35000
C1430       C  0.01752277  0.64587393  0.37850175     0.35000
C1431       C  0.18232085  0.64899431  0.35034955     0.35000
C1432       C  0.17895959  0.64500443  0.38120158     0.35000
C1433       C  0.10508164  0.69631352  0.31059837    -0.22500
C1434       C  0.14593625  0.69893322  0.31133769    -0.22500
C1435       C  0.10423622  0.69778969  0.41560586    -0.22500
C1436       C  0.14373955  0.69815758  0.41565652    -0.22500
C1437       C  0.97396150  0.62137884  0.35323781    -0.23500
C1438       C  0.97342617  0.62392572  0.37290177    -0.23500
C1439       C  0.20235027  0.62485997  0.35622898    -0.23500
C1440       C  0.20000654  0.62216619  0.37598785    -0.23500
C1441       C  0.03622105  0.65264801  0.32928402    -0.18900
C1442       C  0.17522118  0.65959297  0.33157526    -0.18900
C1443       C  0.16947934  0.65318290  0.39956075    -0.18900
C1444       C  0.03483636  0.65865937  0.39681021    -0.18900
H1445       H  0.09195846  0.70667713  0.29873605     0.14000
H1446       H  0.17031588  0.71230836  0.30005104     0.14000
H1447       H  0.09441737  0.71323141  0.42606239     0.14000
H1448       H  0.16938724  0.71325157  0.42619973     0.14000
H1449       H  0.44335121  0.60690563  0.34403452     0.12300
H1450       H  0.44299724  0.61391773  0.38184602     0.12300
H1451       H  0.21642779  0.61032379  0.34728129     0.12300
H1452       H  0.21210242  0.60542826  0.38534624     0.12300
H1453       H  0.09740853  0.63953370  0.34867614     0.25600
H1454       H  0.09081139  0.63206792  0.38168272     0.25600
N1455       N  0.33416925  0.91138850  0.39849165    -0.37200
N1456       N  0.35352469  0.99691429  0.36324056    -0.57800
N1457       N  0.37015007  0.94384677  0.33547706    -0.37200
N1458       N  0.37730027  0.87815616  0.35968809    -0.57800
C1459       C  0.31387808  0.93121575  0.38976614     0.26400
C1460       C  0.32381838  0.87636013  0.38808609     0.26400
C1461       C  0.37907810  0.98306214  0.32756762     0.26400
C1462       C  0.38912969  0.92698192  0.32429207     0.26400
C1463       C  0.33303677  0.00223963  0.37828635     0.35000
C1464       C  0.33865100  0.00735809  0.34733252     0.35000
C1465       C  0.36285747  0.84625245  0.37344596     0.35000
C1466       C  0.37046151  0.85882743  0.34292114     0.35000
C1467       C  0.28901462  0.90776024  0.37439751    -0.22500
C1468       C  0.29569157  0.87286321  0.37321908    -0.22500
C1469       C  0.40697062  0.99298367  0.31213365    -0.22500
C1470       C  0.41227508  0.95745071  0.30968292    -0.22500
C1471       C  0.30829691  0.02126196  0.37188276    -0.23500
C1472       C  0.31070973  0.02315685  0.35212270    -0.23500
C1473       C  0.35049951  0.80633139  0.36555492    -0.23500
C1474       C  0.35388111  0.81416415  0.34607340    -0.23500
C1475       C  0.32133897  0.97256998  0.39410420    -0.18900
C1476       C  0.34435564  0.85125581  0.39011118    -0.18900
C1477       C  0.37913694  0.88231634  0.32533203    -0.18900
C1478       C  0.35019060  0.00033282  0.32914850    -0.18900
H1479       H  0.27006076  0.91638159  0.36459521     0.14000
H1480       H  0.28326592  0.84881042  0.36219404     0.14000
H1481       H  0.41712941  0.02029056  0.30209247     0.14000
H1482       H  0.42867449  0.95448489  0.29742737     0.14000
H1483       H  0.27919774  0.52166850  0.37969005     0.12300
H1484       H  0.28986653  0.53035162  0.34217594     0.12300
H1485       H  0.33377964  0.77437837  0.37264946     0.12300
H1486       H  0.34059036  0.78909851  0.33563912     0.12300
H1487       H  0.35718640  0.92336592  0.40957516     0.25600
H1488       H  0.34549411  0.92603325  0.34551189     0.25600
N1489       N  0.06282812  0.89860474  0.38856552    -0.37200
N1490       N  0.00651592  0.83658381  0.36076621    -0.57800
N1491       N  0.06825927  0.89760582  0.33362137    -0.37200
N1492       N  0.12420584  0.96038375  0.36071224    -0.57800
C1493       C  0.04043733  0.85915273  0.39787111     0.26400
C1494       C  0.09929738  0.92342764  0.39916682     0.26400
C1495       C  0.03153772  0.87322780  0.32318167     0.26400
C1496       C  0.09371723  0.93470149  0.32323416     0.26400
C1497       C  0.98006877  0.81628773  0.37597861     0.35000
C1498       C  0.98740426  0.81205600  0.34541279     0.35000
C1499       C  0.14633766  0.98258296  0.37616796     0.35000
C1500       C  0.15212659  0.97789310  0.34566367     0.35000
C1501       C  0.06431230  0.85830155  0.41366344    -0.22500
C1502       C  0.10045366  0.89904048  0.41485991    -0.22500
C1503       C  0.03276656  0.89615452  0.30655253    -0.22500
C1504       C  0.07208472  0.93501674  0.30658791    -0.22500
C1505       C  0.94188721  0.77984156  0.36993631    -0.23500
C1506       C  0.94890076  0.77453935  0.35113466    -0.23500
C1507       C  0.18831102  0.01587843  0.37080217    -0.23500
C1508       C  0.19261723  0.01174741  0.35162869    -0.23500
C1509       C  0.99526232  0.82738591  0.39492685    -0.18900
C1510       C  0.13281508  0.96719127  0.39510537    -0.18900
C1511       C  0.13894130  0.96395277  0.32683657    -0.18900
C1512       C  0.00148010  0.82804174  0.32650986    -0.18900
H1513       H  0.05500503  0.83176643  0.42400177     0.14000
H1514       H  0.12512186  0.90913817  0.42599872     0.14000
H1515       H  0.00922573  0.88457582  0.29496242     0.14000
H1516       H  0.08472234  0.95948839  0.29513609     0.14000
H1517       H  0.40756701  0.75646609  0.37964587     0.12300
H1518       H  0.42121340  0.74509958  0.34419172     0.12300
H1519       H  0.21034272  0.53464372  0.38128443     0.12300
H1520       H  0.21913703  0.52718452  0.34490413     0.12300
H1521       H  0.05117523  0.90970941  0.37715052     0.25600
H1522       H  0.07906036  0.88642962  0.34531683     0.25600
C1523       C  0.30845605  0.90089897  0.82531658     0.85900
C1524       C  0.30501568  0.93409227  0.81155923    -0.54300
C1525       C  0.34069591  0.95554368  0.79938887     0.08800
C1526       C  0.37648399  0.94150181  0.80233549     0.19800
C1527       C  0.31494244  0.87040251  0.81214310    -0.55100
C1528       C  0.34956295  0.89163577  0.79957267     0.08900
C1529       C  0.35308329  0.92830975  0.83510533    -0.54600
C1530       C  0.38928961  0.94729698  0.82359713     0.09500
H1531       H  0.27564114  0.93756109  0.81047822     0.14000
H1532       H  0.40538524  0.95953945  0.79267714    -0.00300
H1533       H  0.29107558  0.83558365  0.81144021     0.14300
H1534       H  0.35609686  0.93576825  0.84983844     0.14100
C1535       C  0.14401398  0.70165241  0.82492488     0.85900
C1536       C  0.18022122  0.70198442  0.81223404    -0.54300
C1537       C  0.16453417  0.66635517  0.80062976     0.08800
C1538       C  0.11395259  0.63392299  0.80324327     0.19800
C1539       C  0.10833082  0.69819875  0.81070647    -0.55100
C1540       C  0.09407128  0.66390891  0.79866305     0.08900
C1541       C  0.12368538  0.65730390  0.83550169    -0.54600
C1542       C  0.10578431  0.62154820  0.82450990     0.09500
H1543       H  0.21335827  0.73018554  0.81097903     0.14000
H1544       H  0.10062984  0.60422039  0.79454600    -0.00300
H1545       H  0.09845251  0.72302064  0.80922641     0.14300
H1546       H  0.12604199  0.65435298  0.85055832     0.14100
C1547       C  0.10824518  0.86575648  0.82579476     0.85900
C1548       C  0.07496214  0.83194608  0.81186232    -0.54300
C1549       C  0.05483395  0.84851236  0.79981344     0.08800
C1550       C  0.07085365  0.89773888  0.80289846     0.19800
C1551       C  0.14104400  0.90365713  0.81280046    -0.55100
C1552       C  0.12137195  0.91956023  0.80042240     0.08900
C1553       C  0.08103513  0.88294879  0.83560271    -0.54600
C1554       C  0.06384706  0.90222097  0.82391181     0.09500
H1555       H  0.07053562  0.79929917  0.81073059     0.14000
H1556       H  0.05456790  0.91146656  0.79351493    -0.00300
H1557       H  0.17611541  0.91363406  0.81204386     0.14300
H1558       H  0.07319416  0.87800894  0.85043361     0.14100
O1559       O  0.08823068  0.54788158  0.83388182    -0.82400
C1560       C  0.43720646  0.94676141  0.88223277     0.97000
O1561       O  0.44431160  0.98081393  0.87267601    -0.71500
O1562       O  0.02564930  0.54828649  0.88068480    -0.75100
Al1563     Al  0.49374399  0.51824097  0.85836485     1.49000
C1564       C  0.06721898  0.56853815  0.88302100     0.92200
O1565       O  0.07612445  0.97860312  0.87917508    -0.81300
O1566       O  0.01031577  0.92302374  0.83210770    -0.74900
Al1567     Al  0.07989668  0.51208175  0.85662735     1.90100
O1568       O  0.02421038  0.91374118  0.87045444    -0.73900
O1569       O  0.43872245  0.93069637  0.84095945    -0.73800
O1570       O  0.45879020  0.92772873  0.87875430    -0.79500
O1571       O  0.46263990  0.00025932  0.83409659    -0.77700
O1572       O  0.01921870  0.98606487  0.85594412    -1.13800
O1573       O  0.04283371  0.57090447  0.84268858    -0.73000
C1574       C  0.07663457  0.57694174  0.83334587     0.97700
C1575       C  0.05623590  0.93736528  0.88128414     0.94100
Al1576     Al  0.48586197  0.92907711  0.85579365     1.55600
O1577       O  0.09185733  0.56080317  0.87253733    -0.77600
C1578       C  0.43367972  0.96029814  0.83234509     0.98300
C1579       C  0.05059487  0.93279291  0.83184358     0.93200
O1580       O  0.07931330  0.96519319  0.84111248    -0.82900
C1581       C  0.20762926  0.94696436  0.56402892     0.85900
C1582       C  0.24284944  0.95627030  0.57999338    -0.54300
C1583       C  0.25000620  0.99048974  0.59158892     0.08800
C1584       C  0.22101186  0.51081961  0.58605256     0.19800
C1585       C  0.16619062  0.93955251  0.57470942    -0.55100
C1586       C  0.17360471  0.97170566  0.58682548     0.08900
C1587       C  0.22394499  0.99110688  0.55367712    -0.54600
C1588       C  0.23344540  0.52517132  0.56495446     0.09500
H1589       H  0.25887298  0.93669071  0.58220420     0.14000
H1590       H  0.22220017  0.53697618  0.59469486    -0.00300
H1591       H  0.13520283  0.90852151  0.57489063     0.14300
H1592       H  0.22609502  0.99517015  0.53866551     0.14100
C1593       C  0.04920126  0.74541656  0.56372515     0.85900
C1594       C  0.04454724  0.76646631  0.58176863    -0.54300
C1595       C  0.00974356  0.73757071  0.59351608     0.08800
C1596       C  0.48244402  0.68753135  0.58597969     0.19800
C1597       C  0.05260974  0.70544845  0.57135610    -0.55100
C1598       C  0.02011416  0.67826669  0.58370220     0.08900
C1599       C  0.00358253  0.72745443  0.55470332    -0.54600
C1600       C  0.46736218  0.69659176  0.56628953     0.09500
H1601       H  0.06739844  0.80041779  0.58500376     0.14000
H1602       H  0.45474858  0.66195250  0.59449857    -0.00300
H1603       H  0.08333052  0.70434455  0.57061185     0.14300
H1604       H  0.99835456  0.74512983  0.54310159     0.14100
C1605       C  0.24876740  0.78550788  0.56483714     0.85900
C1606       C  0.22381022  0.75744146  0.58250429    -0.54300
C1607       C  0.24901926  0.74503795  0.59372296     0.08800
C1608       C  0.29712901  0.76383866  0.58616306     0.19800
C1609       C  0.29030188  0.82492604  0.57318724    -0.55100
C1610       C  0.31437740  0.81416812  0.58544963     0.08900
C1611       C  0.26452554  0.75739151  0.55519347    -0.54600
C1612       C  0.29068154  0.74648268  0.56578104     0.09500
H1613       H  0.19076068  0.75080792  0.58619961     0.14000
H1614       H  0.31898264  0.75469790  0.59432825    -0.00300
H1615       H  0.29430809  0.85764262  0.57288382     0.14300
H1616       H  0.24905478  0.74020511  0.54242125     0.14100
O1617       O  0.41589522  0.71341493  0.55099991    -0.82400
C1618       C  0.29037834  0.57885397  0.50826857     0.97000
O1619       O  0.33100184  0.59793869  0.51221580    -0.71500
O1620       O  0.41048303  0.66104452  0.52046647    -0.75100
Al1621     Al  0.35698057  0.62216566  0.53583389     1.49000
C1622       C  0.41852582  0.69465588  0.51019204     0.92200
O1623       O  0.33445557  0.73311682  0.51964227    -0.81300
O1624       O  0.27577108  0.68334705  0.54815116    -0.74900
Al1625     Al  0.37035730  0.71626224  0.53583583     1.90100
O1626       O  0.28414732  0.66850171  0.51047977    -0.73900
O1627       O  0.26158477  0.60120071  0.55619870    -0.73800
O1628       O  0.26441269  0.58702981  0.51767264    -0.79500
O1629       O  0.30524487  0.57416617  0.55019510    -0.77700
O1630       O  0.33453446  0.65828934  0.53562796    -1.13800
O1631       O  0.38990421  0.64421259  0.55930182    -0.73000
C1632       C  0.42098313  0.68391727  0.55964505     0.97700
C1633       C  0.30295904  0.70964238  0.50858658     0.94100
Al1634     Al  0.27639418  0.63700935  0.53344106     1.55600
O1635       O  0.39796705  0.71505339  0.51331401    -0.77600
C1636       C  0.26943331  0.56975539  0.55755215     0.98300
C1637       C  0.30396492  0.71509237  0.55802670     0.93200
O1638       O  0.34409555  0.72365140  0.55852397    -0.82900
N1639       N  0.42640767  0.81328707  0.66810120    -0.37200
N1640       N  0.45128025  0.77101273  0.69910689    -0.57800
N1641       N  0.39634401  0.78767818  0.72296072    -0.37200
N1642       N  0.36762745  0.82577427  0.69278242    -0.57800
C1643       C  0.44522372  0.79367952  0.65853766     0.26400
C1644       C  0.40086687  0.82096462  0.65543076     0.26400
C1645       C  0.40893111  0.76522189  0.73498439     0.26400
C1646       C  0.36335106  0.79046896  0.73147125     0.26400
C1647       C  0.47913931  0.77271884  0.68557840     0.35000
C1648       C  0.46834987  0.76698811  0.71589538     0.35000
C1649       C  0.36759256  0.85005757  0.67750742     0.35000
C1650       C  0.35579221  0.84026232  0.70798667     0.35000
C1651       C  0.43297496  0.79105085  0.63956224    -0.22500
C1652       C  0.40372057  0.80588629  0.63785617    -0.22500
C1653       C  0.38244647  0.75199207  0.75110071    -0.22500
C1654       C  0.35347928  0.76776307  0.74883468    -0.22500
C1655       C  0.01292043  0.76875379  0.69270416    -0.23500
C1656       C  0.00595930  0.76582929  0.71205603    -0.23500
C1657       C  0.35416284  0.87922333  0.68289218    -0.23500
C1658       C  0.34681396  0.87310686  0.70228358    -0.23500
C1659       C  0.47356056  0.77827530  0.66606731    -0.18900
C1660       C  0.37715539  0.84361017  0.65877887    -0.18900
C1661       C  0.35237491  0.82319291  0.72676102    -0.18900
C1662       C  0.45016012  0.76693885  0.73366691    -0.18900
H1663       H  0.44366817  0.77994989  0.62772266     0.14000
H1664       H  0.38648168  0.80496646  0.62486683     0.14000
H1665       H  0.38576318  0.73575376  0.76380064     0.14000
H1666       H  0.33108541  0.76683798  0.75963706     0.14000
H1667       H  0.03891973  0.76613561  0.68555889     0.12300
H1668       H  0.02491498  0.75987181  0.72290330     0.12300
H1669       H  0.35029119  0.90241297  0.67381750     0.12300
H1670       H  0.33510153  0.88990852  0.71109157     0.12300
H1671       H  0.43398857  0.82438942  0.68189070     0.25600
H1672       H  0.41611902  0.80882593  0.71211130     0.25600
N1673       N  0.18804067  0.57333494  0.66896162    -0.37200
N1674       N  0.18274789  0.50531745  0.69391672    -0.57800
N1675       N  0.22389629  0.57514494  0.72116399    -0.37200
N1676       N  0.23104436  0.64326748  0.69674073    -0.57800
C1677       C  0.18510468  0.54202272  0.65744614     0.26400
C1678       C  0.20821179  0.61130264  0.65876997     0.26400
C1679       C  0.22286484  0.54051901  0.73038988     0.26400
C1680       C  0.24642609  0.61041410  0.73221489     0.26400
C1681       C  0.15545919  0.48057634  0.68004722     0.35000
C1682       C  0.16922518  0.48098615  0.71008730     0.35000
C1683       C  0.21791628  0.66277449  0.68350670     0.35000
C1684       C  0.23465495  0.66342054  0.71313928     0.35000
C1685       C  0.20514799  0.56051915  0.64011858    -0.22500
C1686       C  0.21954765  0.60437221  0.64087737    -0.22500
C1687       C  0.24786198  0.55450922  0.74684947    -0.22500
C1688       C  0.26263733  0.59855511  0.74805471    -0.22500
C1689       C  0.12260094  0.94068063  0.68589001    -0.23500
C1690       C  0.13142216  0.93935271  0.70506578    -0.23500
C1691       C  0.21600196  0.69770637  0.69104968    -0.23500
C1692       C  0.22610042  0.69774229  0.71007983    -0.23500
C1693       C  0.15856092  0.49681729  0.66133498    -0.18900
C1694       C  0.21134840  0.65063134  0.66448675    -0.18900
C1695       C  0.24085336  0.64757630  0.73092119    -0.18900
C1696       C  0.18865821  0.49688771  0.72788109    -0.18900
H1697       H  0.20734187  0.54380132  0.62791764     0.14000
H1698       H  0.23513240  0.62810694  0.62931640     0.14000
H1699       H  0.24965659  0.53379177  0.75811110     0.14000
H1700       H  0.27943079  0.61814247  0.76018011     0.14000
H1701       H  0.09518796  0.91549862  0.67809792     0.12300
H1702       H  0.11259675  0.91241314  0.71502430     0.12300
H1703       H  0.20709311  0.71979626  0.68373810     0.12300
H1704       H  0.22563651  0.71930441  0.72057423     0.12300
H1705       H  0.17096349  0.56818500  0.68173002     0.25600
H1706       H  0.20136616  0.57220993  0.71066147     0.25600
N1707       N  0.43424881  0.60548849  0.72000876    -0.37200
N1708       N  0.50094630  0.63312652  0.69071716    -0.57800
N1709       N  0.42624264  0.58566194  0.66589734    -0.37200
N1710       N  0.35971293  0.56023271  0.69571143    -0.57800
C1711       C  0.47099738  0.63658945  0.72852708     0.26400
C1712       C  0.39941421  0.59551999  0.73150567     0.26400
C1713       C  0.46040973  0.61226525  0.65417401     0.26400
C1714       C  0.38838120  0.57541327  0.65625339     0.26400
C1715       C  0.52738075  0.64130850  0.70602579     0.35000
C1716       C  0.52335815  0.63142148  0.67554246     0.35000
C1717       C  0.33941052  0.54075839  0.71230262     0.35000
C1718       C  0.33340336  0.53506171  0.68171232     0.35000
C1719       C  0.45907002  0.64864485  0.74507920    -0.22500
C1720       C  0.41389035  0.62238622  0.74705364    -0.22500
C1721       C  0.44405151  0.62007834  0.63743794    -0.22500
C1722       C  0.39909613  0.59621691  0.63844954    -0.22500
C1723       C  0.06434203  0.64491901  0.70127153    -0.23500
C1724       C  0.06197623  0.63887817  0.68178426    -0.23500
C1725       C  0.29788965  0.00541785  0.70884998    -0.23500
C1726       C  0.29377859  0.00149045  0.68933304    -0.23500
C1727       C  0.51420893  0.64458219  0.72458281    -0.18900
C1728       C  0.35847523  0.55625687  0.73028648    -0.18900
C1729       C  0.34485367  0.54410533  0.66230981    -0.18900
C1730       C  0.50559833  0.62471245  0.65697121    -0.18900
H1731       H  0.48114644  0.67110790  0.75553696     0.14000
H1732       H  0.39474195  0.62169547  0.75916290     0.14000
H1733       H  0.46266415  0.63973550  0.62530781     0.14000
H1734       H  0.37777865  0.59431296  0.62684210     0.14000
H1735       H  0.09231537  0.65176019  0.71033467     0.12300
H1736       H  0.08764122  0.63985337  0.67284488     0.12300
H1737       H  0.27381339  0.98427511  0.71933917     0.12300
H1738       H  0.26576245  0.97643689  0.68172650     0.12300
H1739       H  0.43417485  0.58573473  0.70930445     0.25600
H1740       H  0.42850475  0.57013968  0.67837139     0.25600
C1741       C  0.33097745  0.84011363  0.60337107    -0.06700
C1742       C  0.30048466  0.83148770  0.61818641    -0.17800
C1743       C  0.31430186  0.83771113  0.63726041     0.10500
C1744       C  0.36025535  0.85744797  0.64144727    -0.06600
C1745       C  0.39025552  0.87894899  0.62618052    -0.17900
C1746       C  0.37631879  0.86852368  0.60718867     0.10500
S1747       S  0.27118443  0.81518201  0.65514078    -0.32800
S1748       S  0.41821810  0.88820032  0.58890553    -0.32900
H1749       H  0.38938617  0.88154744  0.57356013     0.28500
H1750       H  0.28812287  0.79205992  0.66552327     0.28500
H1751       H  0.26521684  0.81420492  0.61523481     0.19100
H1752       H  0.42560068  0.89689309  0.62907778     0.19100
C1753       C  0.23574030  0.72276767  0.61282841    -0.06700
C1754       C  0.26979892  0.73328362  0.62628745    -0.17800
C1755       C  0.26152387  0.71308383  0.64411093     0.10500
C1756       C  0.21788199  0.68287769  0.64937793    -0.06600
C1757       C  0.18294731  0.67323953  0.63661539    -0.17900
C1758       C  0.19151614  0.69152478  0.61813319     0.10500
S1759       S  0.30793232  0.72139195  0.65887174    -0.32800
S1760       S  0.14583557  0.66821655  0.60163647    -0.32900
H1761       H  0.17160851  0.66802974  0.58639879     0.28500
H1762       H  0.33384455  0.72208621  0.64350962     0.28500
H1763       H  0.30388835  0.75701842  0.62314528     0.19100
H1764       H  0.14962829  0.64751628  0.64034584     0.19100
C1765       C  0.49140482  0.75999577  0.65223780    -0.06700
C1766       C  0.45914439  0.72181518  0.64361439    -0.17800
C1767       C  0.46166345  0.71714094  0.62416602     0.10500
C1768       C  0.00334161  0.74718854  0.61337296    -0.06600
C1769       C  0.03972198  0.77984950  0.62332982    -0.17900
C1770       C  0.03470113  0.79051316  0.64174779     0.10500
S1771       S  0.40874818  0.68890397  0.61224947    -0.32800
S1772       S  0.08096659  0.83820697  0.65174771    -0.32900
H1773       H  0.06082696  0.83969489  0.66857933     0.28500
H1774       H  0.42237360  0.71856996  0.59658306     0.28500
H1775       H  0.42713540  0.70249486  0.65058745     0.19100
H1776       H  0.07193460  0.79864019  0.61661978     0.19100
C1777       C  0.03384284  0.66233378  0.60117799    -0.06700
C1778       C  0.56141001  0.68929538  0.61352457    -0.17800
C1779       C  0.56055917  0.67808020  0.63285810     0.10500
C1780       C  0.53273340  0.63423627  0.63914328    -0.06600
C1781       C  0.51481803  0.60179240  0.62512804    -0.17900
C1782       C  0.01467855  0.61756123  0.60636836     0.10500
S1783       S  0.59004662  0.72207095  0.64900410    -0.32800
S1784       S  0.98434451  0.57502365  0.58964657    -0.32900
H1785       H  0.00563095  0.60083709  0.57332561     0.28500
H1786       H  0.55163067  0.71395024  0.65892848     0.28500
H1787       H  0.57994723  0.72362519  0.60921287     0.19100
H1788       H  0.49460093  0.56767597  0.62960343     0.19100
C1789       C  0.27570249  0.00326798  0.60981789    -0.06700
C1790       C  0.28385821  0.47459366  0.62043486    -0.17800
C1791       C  0.30280377  0.48425631  0.63861165     0.10500
C1792       C  0.31089072  0.52342973  0.64721777    -0.06600
C1793       C  0.29892620  0.55125188  0.63743734    -0.17900
C1794       C  0.28970680  0.04499201  0.61749341     0.10500
S1795       S  0.31648941  0.44537394  0.64951312    -0.32800
S1796       S  0.30507714  0.09318408  0.60242282    -0.32900
H1797       H  0.30672801  0.12081633  0.61682518     0.28500
H1798       H  0.34022889  0.46946357  0.66523373     0.28500
H1799       H  0.27579868  0.44348780  0.61448444     0.19100
H1800       H  0.30733995  0.58219695  0.64372823     0.19100
C1801       C  0.14886974  0.95983028  0.60521801    -0.06700
C1802       C  0.12547416  0.47816745  0.61139651    -0.17800
C1803       C  0.11692313  0.48089482  0.63056560     0.10500
C1804       C  0.13801566  0.46825405  0.64478798    -0.06600
C1805       C  0.15479867  0.44109736  0.63979906    -0.17900
C1806       C  0.15653455  0.93511749  0.61960753     0.10500
S1807       S  0.08664650  0.50852288  0.63622754    -0.32800
S1808       S  0.17297988  0.89524871  0.61471201    -0.32900
H1809       H  0.13744127  0.87198016  0.60223892     0.28500
H1810       H  0.08034183  0.49522759  0.65554822     0.28500
H1811       H  0.11604100  0.49458295  0.60056935     0.19100
H1812       H  0.16698330  0.93049146  0.64952900     0.19100
C1813       C  0.02793090  0.82550390  0.78271946    -0.06700
C1814       C  0.03521589  0.85081813  0.76588432    -0.17800
C1815       C  0.01054838  0.83306319  0.74944434     0.10500
C1816       C  0.97940211  0.78777986  0.74909260    -0.06600
C1817       C  0.97281059  0.76169375  0.76556097    -0.17900
C1818       C  0.99574705  0.78018344  0.78246938     0.10500
S1819       S  0.01752500  0.86934950  0.72930037    -0.32800
S1820       S  0.97953867  0.74478621  0.80337628    -0.32900
H1821       H  0.98362018  0.77719216  0.81579586     0.28500
H1822       H  0.04502767  0.90918847  0.73826771     0.28500
H1823       H  0.06020907  0.88506964  0.76548152     0.19100
H1824       H  0.44902835  0.72423954  0.76671350     0.19100
C1825       C  0.14216685  0.94144050  0.78219884    -0.06700
C1826       C  0.16416768  0.92427533  0.77179791    -0.17800
C1827       C  0.17708367  0.93760348  0.75297924     0.10500
C1828       C  0.16680952  0.96797450  0.74415785    -0.06600
C1829       C  0.14394631  0.98435226  0.75441936    -0.17900
C1830       C  0.13311998  0.97279542  0.77347790     0.10500
S1831       S  0.20770872  0.91576922  0.74145399    -0.32800
S1832       S  0.11048321  0.00129763  0.78609282    -0.32900
H1833       H  0.12605424  0.99671755  0.80409208     0.28500
H1834       H  0.19668922  0.92173493  0.72276755     0.28500
H1835       H  0.17034423  0.89934094  0.77817097     0.19100
H1836       H  0.13785902  0.00927112  0.74790555     0.19100
C1837       C  0.07278240  0.66181506  0.77982912    -0.06700
C1838       C  0.04120433  0.62015996  0.77366909    -0.17800
C1839       C  0.02490160  0.61370348  0.75510503     0.10500
C1840       C  0.03869495  0.64996710  0.74224390    -0.06600
C1841       C  0.07009598  0.69177864  0.74825358    -0.17900
C1842       C  0.08809735  0.69804458  0.76664245     0.10500
S1843       S  0.98465693  0.55832482  0.74901705    -0.32800
S1844       S  0.13146831  0.75273821  0.77181447    -0.32900
H1845       H  0.16084504  0.73901444  0.77883466     0.28500
H1846       H  0.50027660  0.56313726  0.72790414     0.28500
H1847       H  0.02972993  0.59198791  0.78334009     0.19100
H1848       H  0.07997770  0.71984953  0.73865866     0.19100
C1849       C  0.18794141  0.66554833  0.78297946    -0.06700
C1850       C  0.16161774  0.64864306  0.76671542    -0.17800
C1851       C  0.17830487  0.64308684  0.74995775     0.10500
C1852       C  0.22406378  0.65787613  0.74826600    -0.06600
C1853       C  0.25168633  0.67724758  0.76400413    -0.17900
C1854       C  0.23408415  0.68032923  0.78146238     0.10500
S1855       S  0.13805969  0.61373030  0.73175048    -0.32800
S1856       S  0.27171539  0.70011367  0.80128163    -0.32900
H1857       H  0.24039599  0.67178275  0.81486679     0.28500
H1858       H  0.15197086  0.58286655  0.72956623     0.28500
H1859       H  0.12672158  0.63772943  0.76686781     0.19100
H1860       H  0.28662852  0.68754280  0.76304745     0.19100
C1861       C  0.33985739  0.98024363  0.78183783    -0.06700
C1862       C  0.34945223  0.96812203  0.76450212    -0.17800
C1863       C  0.35237035  0.99072521  0.74749877     0.10500
C1864       C  0.34449307  0.02652510  0.74724647    -0.06600
C1865       C  0.33235869  0.03736673  0.76442691    -0.17900
C1866       C  0.33028202  0.01498349  0.78167046     0.10500
S1867       S  0.36973816  0.97383649  0.72691416    -0.32800
S1868       S  0.31856258  0.03459664  0.80297628    -0.32900
H1869       H  0.34610138  0.02567671  0.81492888     0.28500
H1870       H  0.40517308  0.01573769  0.72246357     0.28500
H1871       H  0.35647812  0.94160477  0.76409573     0.19100
H1872       H  0.32543496  0.56313918  0.76428176     0.19100
C1873       C  0.34955845  0.84698647  0.74327051    -0.06700
C1874       C  0.38982109  0.87296389  0.75277773    -0.17800
C1875       C  0.39071194  0.88435392  0.77167067     0.10500
C1876       C  0.35041488  0.87245186  0.78111487    -0.06600
C1877       C  0.31006411  0.84802121  0.77126279    -0.17900
C1878       C  0.30916994  0.83464094  0.75264534     0.10500
S1879       S  0.44423165  0.91108513  0.78319962    -0.32800
S1880       S  0.25550427  0.80013727  0.74218380    -0.32900
H1881       H  0.26985924  0.80495613  0.72326949     0.28500
H1882       H  0.42784050  0.89506421  0.80162543     0.28500
H1883       H  0.42089485  0.88090451  0.74593903     0.19100
H1884       H  0.27881037  0.83975116  0.77796405     0.19100
C1885       C  0.46789312  0.60685575  0.27535854    -0.06700
C1886       C  0.46026964  0.63573202  0.28612393    -0.17800
C1887       C  0.98091407  0.65091595  0.30453135     0.10500
C1888       C  0.00882084  0.63550028  0.31186907    -0.06600
C1889       C  0.51340796  0.60363223  0.30113821    -0.17900
C1890       C  0.49668831  0.59245361  0.28273433     0.10500
S1891       S  0.97178683  0.69033986  0.31655879    -0.32800
S1892       S  0.51661156  0.56402638  0.26828404    -0.32900
H1893       H  0.55096821  0.56822325  0.28045614     0.28500
H1894       H  0.01487276  0.71403768  0.32408461     0.28500
H1895       H  0.93790559  0.64740431  0.28166780     0.19100
H1896       H  0.53491409  0.59193135  0.30687700     0.19100
C1897       C  0.34683036  0.51669840  0.27171645    -0.06700
C1898       C  0.35250341  0.55202506  0.28267178    -0.17800
C1899       C  0.34561237  0.54721152  0.30237657     0.10500
C1900       C  0.33007405  0.00449386  0.31070497    -0.06600
C1901       C  0.31384187  0.96766183  0.29890731    -0.17900
C1902       C  0.32378480  0.97294385  0.27938921     0.10500
S1903       S  0.36010781  0.59608249  0.31520488    -0.32800
S1904       S  0.31146286  0.92503275  0.26622589    -0.32900
H1905       H  0.31198185  0.94351186  0.24815074     0.28500
H1906       H  0.37486785  0.58444794  0.33173376     0.28500
H1907       H  0.36666129  0.58452841  0.27617636     0.19100
H1908       H  0.30111761  0.93524392  0.30542754     0.19100
C1909       C  0.98712397  0.80090643  0.30890017    -0.06700
C1910       C  0.02174731  0.80858411  0.29615650    -0.17800
C1911       C  0.51160564  0.79911814  0.27865688     0.10500
C1912       C  0.46909933  0.78480510  0.27111872    -0.06600
C1913       C  0.43287288  0.76745498  0.28363108    -0.17900
C1914       C  0.43913189  0.77681653  0.30286662     0.10500
S1915       S  0.55969252  0.81683702  0.26376225    -0.32800
S1916       S  0.89497918  0.76965849  0.31431409    -0.32900
H1917       H  0.91784987  0.81016967  0.32320611     0.28500
H1918       H  0.53602483  0.79446592  0.24758311     0.28500
H1919       H  0.05546148  0.82337910  0.30135060     0.19100
H1920       H  0.39949814  0.75314802  0.27798319     0.19100
C1921       C  0.39292737  0.83641366  0.27128717    -0.06700
C1922       C  0.35139936  0.81409080  0.28054735    -0.17800
C1923       C  0.34472353  0.82930924  0.29782709     0.10500
C1924       C  0.38206133  0.86204695  0.30757648    -0.06600
C1925       C  0.42355075  0.88126464  0.29878276    -0.17900
C1926       C  0.42645666  0.87515353  0.27959919     0.10500
S1927       S  0.28854903  0.80608599  0.30645477    -0.32800
S1928       S  0.46374424  0.92337058  0.26539000    -0.32900
H1929       H  0.49055593  0.94864078  0.28039813     0.28500
H1930       H  0.29531267  0.84328079  0.31615545     0.28500
H1931       H  0.32394245  0.78587661  0.27421397     0.19100
H1932       H  0.45201250  0.90703396  0.30591702     0.19100
C1933       C  0.19409196  0.51018300  0.27338730    -0.06700
C1934       C  0.17104462  0.96526950  0.27621877    -0.17800
C1935       C  0.16341358  0.95016827  0.29523470     0.10500
C1936       C  0.16937507  0.97986945  0.30977867    -0.06600
C1937       C  0.19505720  0.52245516  0.30724393    -0.17900
C1938       C  0.21305452  0.53791730  0.28903912     0.10500
S1939       S  0.14368860  0.89282627  0.30015030    -0.32800
S1940       S  0.26046366  0.59231233  0.28681607    -0.32900
H1941       H  0.27839375  0.58348010  0.27088385     0.28500
H1942       H  0.15466927  0.89763829  0.31958267     0.28500
H1943       H  0.15858329  0.94206068  0.26484925     0.19100
H1944       H  0.20214127  0.54625274  0.31799576     0.19100
C1945       C  0.18482759  0.64110522  0.31484588    -0.06700
C1946       C  0.21438730  0.67008821  0.30105656    -0.17800
C1947       C  0.21125202  0.65815475  0.28204524     0.10500
C1948       C  0.18271282  0.61366840  0.27699440    -0.06600
C1949       C  0.15450091  0.58450857  0.29141009    -0.17900
C1950       C  0.15444926  0.59784294  0.30988810     0.10500
S1951       S  0.23881667  0.70345059  0.26523377    -0.32800
S1952       S  0.11369485  0.55970872  0.32686601    -0.32900
H1953       H  0.08962328  0.52522725  0.31439591     0.28500
H1954       H  0.20580298  0.68430219  0.25123330     0.28500
H1955       H  0.23586255  0.70409159  0.30462562     0.19100
H1956       H  0.13224196  0.55058798  0.28877521     0.19100
C1957       C  0.31857602  0.00578784  0.45278453    -0.06700
C1958       C  0.30612786  0.96290064  0.44831134    -0.17800
C1959       C  0.30164308  0.95054650  0.42949262     0.10500
C1960       C  0.32075224  0.98344196  0.41455789    -0.06600
C1961       C  0.34058628  0.02763776  0.41963577    -0.17900
C1962       C  0.33826318  0.03909140  0.43835170     0.10500
S1963       S  0.26357796  0.89248452  0.42659449    -0.32800
S1964       S  0.35625918  0.59132359  0.44237443    -0.32900
H1965       H  0.31468375  0.58542720  0.44780447     0.28500
H1966       H  0.24172303  0.89731274  0.41061011     0.28500
H1967       H  0.29109577  0.93736187  0.45931134     0.19100
H1968       H  0.35567231  0.05346572  0.40881168     0.19100
C1969       C  0.20442360  0.00844418  0.44748639    -0.06700
C1970       C  0.22133227  0.99664333  0.43208027    -0.17800
C1971       C  0.20017450  0.98566279  0.41463172     0.10500
C1972       C  0.16269211  0.99020106  0.41130477    -0.06600
C1973       C  0.14738228  0.00592429  0.42597442    -0.17900
C1974       C  0.16761578  0.01469982  0.44413809     0.10500
S1975       S  0.21829551  0.95895539  0.39841253    -0.32800
S1976       S  0.14294272  0.53081448  0.46383757    -0.32900
H1977       H  0.11082425  0.53470016  0.45284989     0.28500
H1978       H  0.17648698  0.92359161  0.39404862     0.28500
H1979       H  0.24918921  0.99174322  0.43391030     0.19100
H1980       H  0.11496670  0.50767260  0.42456312     0.19100
C1981       C  0.20768764  0.67767054  0.45465865    -0.06700
C1982       C  0.24108461  0.68284909  0.44188269    -0.17800
C1983       C  0.23066116  0.66819521  0.42327396     0.10500
C1984       C  0.18561511  0.64370183  0.41799474    -0.06600
C1985       C  0.15369796  0.62619047  0.43285494    -0.17900
C1986       C  0.16361830  0.64539755  0.45077996     0.10500
S1987       S  0.27623871  0.68452460  0.40701304    -0.32800
S1988       S  0.11803001  0.63116127  0.46685909    -0.32900
H1989       H  0.14320199  0.64696503  0.48348112     0.28500
H1990       H  0.26033999  0.70269048  0.39312057     0.28500
H1991       H  0.27572018  0.70206079  0.44571117     0.19100
H1992       H  0.11905154  0.60484108  0.42933000     0.19100
C1993       C  0.33297484  0.82321956  0.40763621    -0.06700
C1994       C  0.36476927  0.83575020  0.42221744    -0.17800
C1995       C  0.35222203  0.82129693  0.44122696     0.10500
C1996       C  0.30691895  0.79236548  0.44581119    -0.06600
C1997       C  0.27577875  0.78027004  0.43102595    -0.17900
C1998       C  0.28795122  0.79428688  0.41227451     0.10500
S1999       S  0.39454778  0.84580621  0.45908240    -0.32800
S2000       S  0.24324941  0.77612565  0.39523901    -0.32900
H2001       H  0.26824634  0.77795559  0.37943414     0.28500
H2002       H  0.36631667  0.84691264  0.47295652     0.28500
H2003       H  0.39900205  0.86001760  0.41907293     0.19100
H2004       H  0.24102655  0.75871596  0.43380899     0.19100
C2005       C  0.96844604  0.80831302  0.41314584    -0.06700
C2006       C  0.97779986  0.83979865  0.42729648    -0.17800
C2007       C  0.98533085  0.83145985  0.44626869     0.10500
C2008       C  0.97398260  0.78850068  0.45198049    -0.06600
C2009       C  0.94909143  0.75482128  0.43930699    -0.17900
C2010       C  0.94945035  0.76383903  0.41975078     0.10500
S2011       S  0.01401961  0.87745970  0.46161238    -0.32800
S2012       S  0.42755894  0.71415471  0.40558180    -0.32900
H2013       H  0.96385457  0.73513062  0.39236109     0.28500
H2014       H  0.00054091  0.85332361  0.47889502     0.28500
H2015       H  0.98928925  0.87362096  0.42290823     0.19100
H2016       H  0.43421450  0.71773572  0.44473910     0.19100
C2017       C  0.99878029  0.69384418  0.44764923    -0.06700
C2018       C  0.01556430  0.72329861  0.43193190    -0.17800
C2019       C  0.02079312  0.71043483  0.41414970     0.10500
C2020       C  0.01049115  0.66684282  0.41167748    -0.06600
C2021       C  0.99339588  0.63669214  0.42712796    -0.17900
C2022       C  0.48549617  0.64882142  0.44486427     0.10500
S2023       S  0.04961928  0.75326967  0.39622305    -0.32800
S2024       S  0.46972321  0.60874585  0.46412729    -0.32900
H2025       H  0.44856519  0.57174103  0.45266865     0.28500
H2026       H  0.02770114  0.72694753  0.38067428     0.28500
H2027       H  0.02560583  0.75740001  0.43326141     0.19100
H2028       H  0.48515718  0.60386834  0.42452332     0.19100
C2029       C  0.52691665  0.65011185  0.12351243    -0.06700
C2030       C  0.52950484  0.62044605  0.11125387    -0.17800
C2031       C  0.53758995  0.63026395  0.09176108     0.10500
C2032       C  0.54689312  0.67190135  0.08457918    -0.06600
C2033       C  0.05666102  0.70372217  0.09708749    -0.17900
C2034       C  0.54260013  0.69354365  0.11691954     0.10500
S2035       S  0.52841591  0.58627620  0.07658275    -0.32800
S2036       S  0.04252792  0.73512123  0.13011914    -0.32900
H2037       H  0.04097474  0.71537219  0.14798688     0.28500
H2038       H  0.49566827  0.58898189  0.06557612     0.28500
H2039       H  0.51888534  0.58723637  0.11628957     0.19100
H2040       H  0.06586165  0.73635964  0.09163717     0.19100
C2041       C  0.34247157  0.83693967  0.07609065    -0.06700
C2042       C  0.38694511  0.86360766  0.08118410    -0.17800
C2043       C  0.39882279  0.87276519  0.10039108     0.10500
C2044       C  0.36594520  0.85068042  0.11478986    -0.06600
C2045       C  0.32129479  0.83080266  0.10943253    -0.17900
C2046       C  0.30942061  0.82668961  0.09016890     0.10500
S2047       S  0.45576442  0.91183555  0.10605834    -0.32800
S2048       S  0.25107785  0.80106639  0.08447682    -0.32900
H2049       H  0.25762224  0.81286816  0.06500491     0.28500
H2050       H  0.47176006  0.92252359  0.08726403     0.28500
H2051       H  0.41252528  0.87395240  0.07042547     0.19100
H2052       H  0.29556008  0.81609693  0.12021131     0.19100
C2053       C  0.44332876  0.80495242  0.11149313    -0.06700
C2054       C  0.48171143  0.83241607  0.10066347    -0.17800
C2055       C  0.98497482  0.82060001  0.08183360     0.10500
C2056       C  0.45081442  0.78493871  0.07337153    -0.06600
C2057       C  0.41107121  0.76142894  0.08349442    -0.17900
C2058       C  0.41060492  0.76584804  0.10311083     0.10500
S2059       S  0.03832961  0.85380826  0.07051609    -0.32800
S2060       S  0.37673908  0.71637578  0.11736510    -0.32900
H2061       H  0.34928328  0.69054995  0.10262989     0.28500
H2062       H  0.03867840  0.82037547  0.06024131     0.28500
H2063       H  0.00504286  0.86314692  0.10569723     0.19100
H2064       H  0.38411347  0.73284875  0.07702077     0.19100
C2065       C  0.17312718  0.59913744  0.11067084    -0.06700
C2066       C  0.18945106  0.58463990  0.09588787    -0.17800
C2067       C  0.19104359  0.59853392  0.07706387     0.10500
C2068       C  0.18043904  0.63141784  0.07276552    -0.06600
C2069       C  0.16314318  0.64580270  0.08707399    -0.17900
C2070       C  0.16001110  0.63061591  0.10599919     0.10500
S2071       S  0.21303479  0.57891674  0.05891279    -0.32800
S2072       S  0.14609225  0.65810311  0.12355837    -0.32900
H2073       H  0.17493578  0.65692021  0.13751838     0.28500
H2074       H  0.22392361  0.55277939  0.07083842     0.28500
H2075       H  0.20051479  0.56139564  0.09868024     0.19100
H2076       H  0.15730296  0.67291979  0.08390959     0.19100
C2077       C  0.41076583  0.55684689  0.11111274    -0.06700
C2078       C  0.42248039  0.53164484  0.09988461    -0.17800
C2079       C  0.40291972  0.51712542  0.08217237     0.10500
C2080       C  0.37411006  0.53141832  0.07480571    -0.06600
C2081       C  0.36692288  0.56100349  0.08497940    -0.17900
C2082       C  0.38185140  0.57091049  0.10353821     0.10500
S2083       S  0.40544362  0.97649728  0.06932399    -0.32800
S2084       S  0.35620368  0.59450911  0.11748798    -0.32900
H2085       H  0.34950706  0.56665258  0.13340020     0.28500
H2086       H  0.43068872  0.96923401  0.08321541     0.28500
H2087       H  0.44532586  0.52130887  0.10528315     0.19100
H2088       H  0.34363063  0.57079364  0.07952574     0.19100
C2089       C  0.15260537  0.44633533  0.08310164    -0.06700
C2090       C  0.13821964  0.47721614  0.08418602    -0.17800
C2091       C  0.12754485  0.48686287  0.10172401     0.10500
C2092       C  0.14483888  0.47684167  0.11818622    -0.06600
C2093       C  0.14945963  0.43941850  0.11755936    -0.17900
C2094       C  0.14782509  0.42086365  0.09987032     0.10500
S2095       S  0.08883414  0.50710248  0.10202613    -0.32800
S2096       S  0.14455220  0.36801733  0.09936260    -0.32900
H2097       H  0.13786068  0.36327402  0.07961834     0.28500
H2098       H  0.07033413  0.48804666  0.11981489     0.28500
H2099       H  0.13682581  0.49549263  0.07186970     0.19100
H2100       H  0.15487234  0.42528312  0.13050967     0.19100
C2101       C  0.17925909  0.64881430  0.93492457    -0.06700
C2102       C  0.16730364  0.61048631  0.94606532    -0.17800
C2103       C  0.18371392  0.61237510  0.96458679     0.10500
C2104       C  0.21351282  0.65350587  0.97220571    -0.06600
C2105       C  0.22664835  0.69154889  0.96076749    -0.17900
C2106       C  0.21043232  0.68976684  0.94231049     0.10500
S2107       S  0.16341739  0.56133192  0.97784857    -0.32800
S2108       S  0.22920002  0.74036656  0.92852843    -0.32900
H2109       H  0.25231993  0.76937372  0.94319046     0.28500
H2110       H  0.19853766  0.57574016  0.99090311     0.28500
H2111       H  0.14318314  0.57882615  0.94073948     0.19100
H2112       H  0.24887695  0.72318911  0.96662931     0.19100
C2113       C  0.06483364  0.64038239  0.94469883    -0.06700
C2114       C  0.07736277  0.68227360  0.95119051    -0.17800
C2115       C  0.07041040  0.68877707  0.96986912     0.10500
C2116       C  0.04536727  0.65226319  0.98209854    -0.06600
C2117       C  0.03242923  0.61013610  0.97595005    -0.17900
C2118       C  0.04331164  0.60377775  0.95765675     0.10500
S2119       S  0.09179889  0.74467327  0.97681866    -0.32800
S2120       S  0.02883619  0.54837700  0.95238026    -0.32900
H2121       H  0.06876083  0.56037897  0.94291675     0.28500
H2122       H  0.09255699  0.73668769  0.99645986     0.28500
H2123       H  0.09299193  0.71074616  0.94167699     0.19100
H2124       H  0.01271876  0.58201669  0.98528508     0.19100
C2125       C  0.37578799  0.84675236  0.93745158    -0.06700
C2126       C  0.40524549  0.87395077  0.95139724    -0.17800
C2127       C  0.40585619  0.85708576  0.96979933     0.10500
C2128       C  0.37344857  0.81305716  0.97469298    -0.06600
C2129       C  0.34831740  0.78601598  0.95944809    -0.17900
C2130       C  0.35269427  0.80183496  0.94085757     0.10500
S2131       S  0.44892547  0.89177231  0.98603385    -0.32800
S2132       S  0.33109883  0.76346775  0.92186073    -0.32900
H2133       H  0.35935198  0.79245361  0.90758135     0.28500
H2134       H  0.46697617  0.93051872  0.97470912     0.28500
H2135       H  0.42640275  0.90853872  0.94802452     0.19100
H2136       H  0.32420346  0.75196479  0.96151151     0.19100
C2137       C  0.35846081  0.94902627  0.94295128    -0.06700
C2138       C  0.36825881  0.99307497  0.94308191    -0.17800
C2139       C  0.36469184  0.01167547  0.95987501     0.10500
C2140       C  0.35740303  0.98813733  0.97729839    -0.06600
C2141       C  0.35637552  0.94805146  0.97756545    -0.17900
C2142       C  0.34868006  0.92538458  0.96076519     0.10500
S2143       S  0.36539898  0.55383372  0.95907235    -0.32800
S2144       S  0.31445120  0.86647960  0.96350379    -0.32900
H2145       H  0.29735851  0.86468086  0.98174592     0.28500
H2146       H  0.37228435  0.56309857  0.97849897     0.28500
H2147       H  0.37473306  0.01175071  0.92981515     0.19100
H2148       H  0.34952961  0.93005714  0.99103058     0.19100
C2149       C  0.03197473  0.82988327  0.93761109    -0.06700
C2150       C  0.05630972  0.83521014  0.95457503    -0.17800
C2151       C  0.03596567  0.81509524  0.97190670     0.10500
C2152       C  0.98960316  0.78732278  0.97277080    -0.09000
C2153       C  0.96491178  0.78096387  0.95594154    -0.17900
C2154       C  0.98543332  0.80078078  0.93845364     0.10500
S2155       S  0.07004640  0.82451430  0.99290498    -0.32800
S2156       S  0.95073790  0.78307579  0.91764692    -0.32900
H2157       H  0.98434967  0.78621033  0.90560996     0.28500
H2158       H  0.11167706  0.85090707  0.98419874     0.28500
H2159       H  0.09164848  0.85678103  0.95482669     0.19100
H2160       H  0.92968238  0.75814266  0.95598723     0.19100
C2161       C  0.13414498  0.94951825  0.94186519    -0.06700
C2162       C  0.17858626  0.97851702  0.94572151    -0.17800
C2163       C  0.19193939  0.98973615  0.96443808     0.10500
C2164       C  0.16197767  0.96488880  0.97950582    -0.06600
C2165       C  0.11654703  0.94160563  0.97536622    -0.17900
C2166       C  0.10246914  0.93834180  0.95646378     0.10500
S2167       S  0.25016178  0.53123524  0.96977292    -0.32800
S2168       S  0.04540185  0.92220473  0.95122547    -0.32900
H2169       H  0.03139061  0.91401488  0.97023333     0.28500
H2170       H  0.24265016  0.53728907  0.98875097     0.28500
H2171       H  0.20272184  0.99208577  0.93427110     0.19100
H2172       H  0.09234818  0.92394862  0.98641907     0.19100
C2173       C  0.57499109  0.41606938  0.89555064     0.85900
C2174       C  0.53988457  0.37733100  0.90804310    -0.54300
C2175       C  0.55727097  0.35900541  0.92082787     0.08800
C2176       C  0.60844334  0.38147319  0.91909935     0.19800
C2177       C  0.60651241  0.44833765  0.90996728    -0.55100
C2178       C  0.62331517  0.43054725  0.92264484     0.08900
C2179       C  0.60274480  0.39924457  0.88618041    -0.54600
C2180       C  0.61813607  0.37871061  0.89796173     0.09500
H2181       H  0.50573182  0.37021748  0.90836882     0.14000
H2182       H  0.62473980  0.36771294  0.92844421    -0.00300
H2183       H  0.61041083  0.48070618  0.91171005     0.14300
H2184       H  0.61543397  0.40852713  0.87194204     0.14100
C2185       C  0.90028397  0.42595624  0.89686532     0.85900
C2186       C  0.89520322  0.45381288  0.91217289    -0.54300
C2187       C  0.85992192  0.43004839  0.92453778     0.08800
C2188       C  0.83203763  0.38134191  0.91921365     0.19800
C2189       C  0.90228651  0.38941336  0.90831887    -0.55100
C2190       C  0.86752315  0.36639084  0.92022180     0.08900
C2191       C  0.85588758  0.40282931  0.88671985    -0.54600
C2192       C  0.81964068  0.38169883  0.89798545     0.09500
H2193       H  0.91990851  0.48795832  0.91415525     0.14000
H2194       H  0.80160488  0.36092746  0.92758990    -0.00300
H2195       H  0.93161572  0.38570028  0.90896389     0.14300
H2196       H  0.85332538  0.39717855  0.87184703     0.14100
C2197       C  0.58667203  0.10446988  0.89669099     0.85900
C2198       C  0.62865656  0.10937087  0.90703879    -0.54300
C2199       C  0.64839521  0.14454503  0.91881966     0.08800
C2200       C  0.62531512  0.17208682  0.91822256     0.19800
C2201       C  0.55664198  0.10324862  0.91275800    -0.55100
C2202       C  0.57746997  0.13803418  0.92454414     0.08900
C2203       C  0.60068781  0.14839634  0.88646124    -0.54600
C2204       C  0.62335907  0.18423378  0.89719480     0.09500
H2205       H  0.63843641  0.08443864  0.90673499     0.14000
H2206       H  0.64067132  0.20094387  0.92723582    -0.00300
H2207       H  0.52309025  0.07635909  0.91509660     0.14300
H2208       H  0.58834625  0.15080677  0.87263322     0.14100
O2209       O  0.76323473  0.38651668  0.87972438    -0.82400
C2210       C  0.65816313  0.23775370  0.83826785     0.97000
O2211       O  0.69854784  0.26584627  0.84059811    -0.71500
O2212       O  0.76931394  0.34290639  0.84865374    -0.75100
Al2213     Al  0.72240554  0.29474336  0.86400555     1.49000
C2214       C  0.77056916  0.37455158  0.83875273     0.92200
O2215       O  0.66319065  0.37796591  0.84986494    -0.81300
O2216       O  0.61565249  0.32131764  0.87982408    -0.74900
Al2217     Al  0.71040520  0.37607396  0.86490564     1.90100
O2218       O  0.62094427  0.30992765  0.84136634    -0.73900
O2219       O  0.62709649  0.25144602  0.88694902    -0.73800
O2220       O  0.62842031  0.23899359  0.84821268    -0.79500
O2221       O  0.68223952  0.24142268  0.87877837    -0.77700
O2222       O  0.68691633  0.31798456  0.86443197    -1.13800
O2223       O  0.75146575  0.32068400  0.88747052    -0.73000
C2224       C  0.77451889  0.36175196  0.88893641     0.97700
C2225       C  0.63203529  0.34990964  0.83963692     0.94100
Al2226     Al  0.62805113  0.28333631  0.86420425     1.55600
O2227       O  0.74171353  0.38577064  0.84140898    -0.77600
C2228       C  0.64641181  0.22902403  0.88801727     0.98300
C2229       C  0.63956868  0.35530755  0.88943426     0.93200
O2230       O  0.68142943  0.37381254  0.88836552    -0.82900
N2231       N  0.75364371  0.46955193  0.00209172    -0.37200
N2232       N  0.68611200  0.44914754  0.03108494    -0.57800
N2233       N  0.76431369  0.98580603  0.05641523    -0.37200
N2234       N  0.82487768  0.49794670  0.02669927    -0.57800
C2235       C  0.71325249  0.44503810  0.99448723     0.26400
C2236       C  0.78261550  0.46461889  0.99133614     0.26400
C2237       C  0.73055619  0.96768485  0.06939394     0.26400
C2238       C  0.80241545  0.99584528  0.06578279     0.26400
C2239       C  0.66552703  0.45509634  0.01578938     0.35000
C2240       C  0.66438298  0.44937253  0.04674499     0.35000
C2241       C  0.84849687  0.50901311  0.01046635     0.35000
C2242       C  0.85310662  0.52025889  0.04059702     0.35000
C2243       C  0.71574552  0.42256526  0.97918631    -0.22500
C2244       C  0.75970720  0.43532831  0.97701732    -0.22500
C2245       C  0.74879553  0.96727889  0.08712534    -0.22500
C2246       C  0.79304123  0.98334530  0.08470722    -0.22500
C2247       C  0.62916790  0.45796661  0.02158750    -0.23500
C2248       C  0.62708512  0.45205500  0.04114741    -0.23500
C2249       C  0.89287516  0.53808154  0.01401897    -0.23500
C2250       C  0.89572953  0.54590554  0.03329487    -0.23500
C2251       C  0.67936727  0.45483210  0.99707036    -0.18900
C2252       C  0.82929713  0.48983725  0.99313311    -0.18900
C2253       C  0.84632173  0.02234678  0.05873564    -0.18900
C2254       C  0.68512735  0.95626905  0.06596086    -0.18900
H2255       H  0.68942990  0.40324871  0.96932159     0.14000
H2256       H  0.77292132  0.42649986  0.96524246     0.14000
H2257       H  0.73409198  0.95888235  0.10102345     0.14000
H2258       H  0.81619288  0.98789691  0.09605393     0.14000
H2259       H  0.60587018  0.46266574  0.01291349     0.12300
H2260       H  0.60080547  0.45011477  0.04990320     0.12300
H2261       H  0.91999314  0.55202237  0.00387269     0.12300
H2262       H  0.92572271  0.56669128  0.04109633     0.12300
H2263       H  0.76151767  0.49489724  0.01139794     0.25600
H2264       H  0.75863281  0.49339189  0.04376102     0.25600
C2265       C  0.62885580  0.03461918  0.15883534     0.85900
C2266       C  0.63361043  0.06799235  0.14285796    -0.54300
C2267       C  0.66920725  0.07974423  0.13074595     0.08800
C2268       C  0.69592727  0.05668601  0.13631120     0.19800
C2269       C  0.62619486  0.99587981  0.14831167    -0.55100
C2270       C  0.65955751  0.00683549  0.13579180     0.08900
C2271       C  0.67343595  0.05481928  0.16863928    -0.54600
C2272       C  0.70905531  0.06890082  0.15721811     0.09500
H2273       H  0.60815829  0.07686555  0.14033399     0.14000
H2274       H  0.72605424  0.06565465  0.12780927    -0.00300
H2275       H  0.59425539  0.46175769  0.14785689     0.14300
H2276       H  0.67715963  0.05730129  0.18357664     0.14100
C2277       C  0.93792693  0.36647728  0.15693434     0.85900
C2278       C  0.96226480  0.35527976  0.14133085    -0.54300
C2279       C  0.93335527  0.31969941  0.13032015     0.08800
C2280       C  0.88434852  0.30046009  0.13640989     0.19800
C2281       C  0.90334205  0.37322173  0.14565962    -0.55100
C2282       C  0.87755346  0.34050541  0.13388402     0.08900
C2283       C  0.91301239  0.32294874  0.16785801    -0.54600
C2284       C  0.88431624  0.28775366  0.15771444     0.09500
H2285       H  0.99781572  0.37445684  0.13889812     0.14000
H2286       H  0.85819925  0.27360406  0.12828223    -0.00300
H2287       H  0.90638084  0.40541795  0.14372359     0.14300
H2288       H  0.92852503  0.31763832  0.18017408     0.14100
C2289       C  0.96484389  0.06642452  0.15926293     0.85900
C2290       C  0.93903437  0.04604195  0.14100447    -0.54300
C2291       C  0.93092840  0.07453107  0.12993179     0.08800
C2292       C  0.95032684  0.12067736  0.13826703     0.19800
C2293       C  0.00716295  0.10828567  0.15227723    -0.55100
C2294       C  0.00010740  0.13505760  0.14015047     0.08900
C2295       C  0.93587056  0.08178477  0.16865819    -0.54600
C2296       C  0.92915455  0.11143794  0.15835359     0.09500
H2297       H  0.92890142  0.01271178  0.13712476     0.14000
H2298       H  0.94533874  0.14471985  0.12958081    -0.00300
H2299       H  0.03981535  0.11111527  0.15309648     0.14300
H2300       H  0.91334198  0.06271232  0.18000835     0.14100
O2301       O  0.89907689  0.23609803  0.17500948    -0.82400
C2302       C  0.75733918  0.10699105  0.21564030     0.97000
O2303       O  0.77756483  0.14798553  0.21293046    -0.71500
O2304       O  0.84367350  0.22790424  0.20539208    -0.75100
Al2305     Al  0.80492354  0.17795258  0.18961845     1.49000
C2306       C  0.87586879  0.23295360  0.21580943     0.92200
O2307       O  0.91092202  0.14664298  0.20535656    -0.81300
O2308       O  0.86308186  0.09616397  0.17460948    -0.74900
Al2309     Al  0.89833314  0.18720822  0.18977475     1.90100
O2310       O  0.84358735  0.09488252  0.21237172    -0.73900
O2311       O  0.78375149  0.08949138  0.16602758    -0.73800
O2312       O  0.76444681  0.08301333  0.20472357    -0.79500
O2313       O  0.75781807  0.13221745  0.17453612    -0.77700
O2314       O  0.83976168  0.15370363  0.18906494    -1.13800
O2315       O  0.82985354  0.21293881  0.16658640    -0.73000
C2316       C  0.87046272  0.24241080  0.16595585     0.97700
C2317       C  0.88485699  0.11261852  0.21517432     0.94100
Al2318     Al  0.81579896  0.09579049  0.18923488     1.55600
O2319       O  0.89427658  0.21036884  0.21291067    -0.77600
C2320       C  0.75362656  0.09972815  0.16526912     0.98300
C2321       C  0.89767989  0.12508629  0.16589644     0.93200
O2322       O  0.90852435  0.16520527  0.16661986    -0.82900
N2323       N  0.48712734  0.20251158  0.00173074    -0.37200
N2324       N  0.51639112  0.16334262  0.03146020    -0.57800
N2325       N  0.99361693  0.21567071  0.05489563    -0.37200
N2326       N  0.46266470  0.25082380  0.02521008    -0.57800
C2327       C  0.48788957  0.16894666  0.99336767     0.26400
C2328       C  0.46677582  0.21749419  0.98964595     0.26400
C2329       C  0.99680516  0.18559532  0.06620601     0.26400
C2330       C  0.96497808  0.22519764  0.06348047     0.26400
C2331       C  0.53611052  0.15817404  0.01629849     0.35000
C2332       C  0.54088056  0.16528199  0.04679858     0.35000
C2333       C  0.47143990  0.27557368  0.00908286     0.35000
C2334       C  0.46722367  0.27669137  0.03979054     0.35000
C2335       C  0.46508487  0.16058088  0.97625418    -0.22500
C2336       C  0.45222439  0.19163815  0.97379095    -0.22500
C2337       C  0.96837888  0.17403329  0.08147659    -0.22500
C2338       C  0.94855282  0.19910017  0.07994468    -0.22500
C2339       C  0.57320421  0.15554827  0.02197295    -0.23500
C2340       C  0.57620705  0.16001246  0.04157177    -0.23500
C2341       C  0.48059488  0.31736533  0.01342355    -0.23500
C2342       C  0.47642133  0.31773377  0.03293833    -0.23500
C2343       C  0.52018134  0.15676518  0.99769953    -0.18900
C2344       C  0.47203925  0.25970452  0.99089245    -0.18900
C2345       C  0.96057459  0.26213722  0.05833350    -0.18900
C2346       C  0.03169201  0.17627835  0.06518311    -0.18900
H2347       H  0.46260317  0.13780158  0.96565588     0.14000
H2348       H  0.43693089  0.19636381  0.96114080     0.14000
H2349       H  0.96524597  0.15248700  0.09334949     0.14000
H2350       H  0.92626847  0.19847901  0.09054099     0.14000
H2351       H  0.59598118  0.15189519  0.01289119     0.12300
H2352       H  0.10747623  0.16929918  0.05186810     0.12300
H2353       H  0.49150774  0.34508435  0.00373955     0.12300
H2354       H  0.48202344  0.34558378  0.04111261     0.12300
H2355       H  0.50830075  0.22058942  0.01264483     0.25600
H2356       H  0.51601402  0.23169898  0.04435849     0.25600
N2357       N  0.79721657  0.22256562  0.00153240    -0.37200
N2358       N  0.72769301  0.16764624  0.02538869    -0.57800
N2359       N  0.77499738  0.23528199  0.05248371    -0.37200
N2360       N  0.85015903  0.29291680  0.02799760    -0.57800
C2361       C  0.77782598  0.18314686  0.99336931     0.26400
C2362       C  0.84001642  0.24451698  0.99600255     0.26400
C2363       C  0.75054128  0.19865891  0.06320420     0.26400
C2364       C  0.80871966  0.26322678  0.06355312     0.26400
C2365       C  0.70703024  0.15036490  0.00897494     0.35000
C2366       C  0.69674970  0.15401881  0.03898507     0.35000
C2367       C  0.86088489  0.31304599  0.01068627     0.35000
C2368       C  0.84934074  0.32115264  0.04034747     0.35000
C2369       C  0.80891010  0.17843076  0.98321623    -0.22500
C2370       C  0.84883265  0.21689844  0.98542891    -0.22500
C2371       C  0.77036992  0.20279242  0.08091806    -0.22500
C2372       C  0.80706112  0.24365822  0.08109851    -0.22500
C2373       C  0.66165268  0.12489959  0.01208906    -0.23500
C2374       C  0.65533651  0.12587479  0.03149458    -0.23500
C2375       C  0.86642868  0.35488841  0.01209977    -0.23500
C2376       C  0.86064972  0.36057804  0.03111658    -0.23500
C2377       C  0.73142145  0.15680783  0.99217116    -0.18900
C2378       C  0.86244155  0.29082098  0.99431698    -0.18900
C2379       C  0.83455134  0.30824937  0.05925114    -0.18900
C2380       C  0.70834304  0.16401285  0.05806724    -0.18900
H2381       H  0.80281318  0.15159172  0.97420900     0.14000
H2382       H  0.87908820  0.22573092  0.97796295     0.14000
H2383       H  0.75869030  0.17986200  0.09290940     0.14000
H2384       H  0.82841457  0.25839020  0.09316982     0.14000
H2385       H  0.63613965  0.10653428  0.00180314     0.12300
H2386       H  0.62417455  0.10820239  0.03913930     0.12300
H2387       H  0.87193261  0.37821908  0.00068175     0.12300
H2388       H  0.86118693  0.38885797  0.03708301     0.12300
H2389       H  0.78001986  0.23716769  0.00705882     0.25600
H2390       H  0.76553158  0.24347049  0.03954130     0.25600
C2391       C  0.95595700  0.21702414  0.49531132     0.85900
C2392       C  0.95463784  0.25524626  0.48445611    -0.54300
C2393       C  0.48590635  0.27490094  0.47047199     0.08800
C2394       C  0.52103619  0.25969959  0.47118764     0.19800
C2395       C  0.95744233  0.18859975  0.47937045    -0.55100
C2396       C  0.49279088  0.21003211  0.46676337     0.08900
C2397       C  0.00185668  0.23647642  0.50414561    -0.54600
C2398       C  0.53583879  0.26076828  0.49212952     0.09500
H2399       H  0.92507008  0.25858010  0.48424370     0.14000
H2400       H  0.55003262  0.27958322  0.46177530    -0.00300
H2401       H  0.93142980  0.15496153  0.47760476     0.14300
H2402       H  0.00739863  0.22727799  0.51809221     0.14100
C2403       C  0.78122204  0.22826369  0.49456825     0.85900
C2404       C  0.73955133  0.19049371  0.48554018    -0.54300
C2405       C  0.71841921  0.20270024  0.47262776     0.08800
C2406       C  0.73736498  0.25316904  0.47195452     0.19800
C2407       C  0.80895092  0.25670620  0.47744300    -0.55100
C2408       C  0.78626896  0.27085188  0.46547164     0.08900
C2409       C  0.76564828  0.25689413  0.50389731    -0.54600
C2410       C  0.74091854  0.26871952  0.49268760     0.09500
H2411       H  0.73298881  0.15681336  0.48597341     0.14000
H2412       H  0.71739772  0.26347241  0.46302303    -0.00300
H2413       H  0.84168003  0.26158904  0.47435826     0.14300
H2414       H  0.77655020  0.27007597  0.51773816     0.14100
C2415       C  0.77342331  0.04270576  0.49414042     0.85900
C2416       C  0.80872697  0.04179996  0.48143731    -0.54300
C2417       C  0.79158343  0.50681655  0.46924620     0.08800
C2418       C  0.74048716  0.47600427  0.47127088     0.19800
C2419       C  0.73863127  0.04202763  0.47983754    -0.55100
C2420       C  0.72246834  0.50744678  0.46668906     0.08900
C2421       C  0.75207255  0.99779886  0.50429688    -0.54600
C2422       C  0.73147706  0.46285674  0.49239853     0.09500
H2423       H  0.84353326  0.06674733  0.48156816     0.14000
H2424       H  0.72605635  0.44681663  0.46219516    -0.00300
H2425       H  0.73266707  0.06945008  0.47798702     0.14300
H2426       H  0.76267846  0.99361034  0.51826396     0.14100
O2427       O  0.72923388  0.39599909  0.50257593    -0.82400
C2428       C  0.58521373  0.27378474  0.55054067     0.97000
O2429       O  0.58573770  0.30513118  0.54083089    -0.71500
O2430       O  0.65654604  0.38125221  0.54807125    -0.75100
Al2431     Al  0.63265924  0.35189330  0.52499876     1.49000
C2432       C  0.69646768  0.41003867  0.55082048     0.92200
O2433       O  0.73267758  0.33789991  0.54888717    -0.81300
O2434       O  0.67681362  0.27290054  0.50193566    -0.74900
Al2435     Al  0.72757755  0.36433913  0.52567765     1.90100
O2436       O  0.69098155  0.26945143  0.54103368    -0.73900
O2437       O  0.59453951  0.25958723  0.50948122    -0.73800
O2438       O  0.61416890  0.26300733  0.54747997    -0.79500
O2439       O  0.60299043  0.32421500  0.50176979    -0.77700
O2440       O  0.66873569  0.32924663  0.52492126    -1.13800
O2441       O  0.67249481  0.40437400  0.50995785    -0.73000
C2442       C  0.70895104  0.41759556  0.50113839     0.97700
C2443       C  0.72102788  0.29785147  0.55142246     0.94100
Al2444     Al  0.64601486  0.27130764  0.52484065     1.55600
O2445       O  0.72703612  0.40969612  0.54119536    -0.77600
C2446       C  0.58165088  0.28294247  0.50035514     0.98300
C2447       C  0.71878125  0.29174979  0.50128245     0.93200
O2448       O  0.74169374  0.32615617  0.51080564    -0.82900
C2449       C  0.72077816  0.08580184  0.23047541     0.85900
C2450       C  0.71972627  0.11494351  0.24606871    -0.54300
C2451       C  0.68377115  0.09418010  0.25843000     0.08800
C2452       C  0.65339969  0.04482860  0.25346508     0.19800
C2453       C  0.72034307  0.04731363  0.24177064    -0.55100
C2454       C  0.68647349  0.02721557  0.25467452     0.08900
C2455       C  0.67588059  0.06839037  0.22107986    -0.54600
C2456       C  0.64043091  0.04486857  0.23241236     0.09500
H2457       H  0.74834489  0.14676234  0.24806807     0.14000
H2458       H  0.62309472  0.02456770  0.26197913    -0.00300
H2459       H  0.74860562  0.04192505  0.24191222     0.14300
H2460       H  0.67169548  0.08178838  0.20781138     0.14100
C2461       C  0.89925413  0.27066224  0.22945853     0.85900
C2462       C  0.93529223  0.26530354  0.24026247    -0.54300
C2463       C  0.96188472  0.29856952  0.25146192     0.08800
C2464       C  0.95339103  0.33733148  0.24930784     0.19800
C2465       C  0.87523542  0.28135109  0.24527362    -0.55100
C2466       C  0.90441308  0.31816890  0.25553139     0.08900
C2467       C  0.92250182  0.31389421  0.21825479    -0.54600
C2468       C  0.95165856  0.34887326  0.22829316     0.09500
H2469       H  0.93215238  0.23316858  0.24283156     0.14000
H2470       H  0.97952165  0.36480929  0.25718378    -0.00300
H2471       H  0.83970727  0.26247836  0.24776400     0.14300
H2472       H  0.90592432  0.31925750  0.20632566     0.14100
C2473       C  0.90150260  0.08959517  0.22918189     0.85900
C2474       C  0.86241837  0.05125705  0.24001424    -0.54300
C2475       C  0.87396022  0.02894337  0.25282924     0.08800
C2476       C  0.92392651  0.04364549  0.25200432     0.19800
C2477       C  0.93354617  0.11682902  0.24501215    -0.55100
C2478       C  0.94584038  0.09293562  0.25709712     0.08900
C2479       C  0.92627993  0.06961384  0.21959782    -0.54600
C2480       C  0.93652736  0.04366441  0.23082725     0.09500
H2481       H  0.82979357  0.04845681  0.24070592     0.14000
H2482       H  0.93212154  0.02309524  0.26162943    -0.00300
H2483       H  0.94408604  0.15118917  0.24687196     0.14300
H2484       H  0.94133032  0.08088169  0.20591884     0.14100
O2485       O  0.57058882  0.03875000  0.22321142    -0.82400
C2486       C  0.96297670  0.40384822  0.17094488     0.97000
O2487       O  0.49241603  0.40398524  0.18127916    -0.71500
O2488       O  0.56308193  0.47911389  0.17459609    -0.75100
Al2489     Al  0.53528206  0.45068499  0.19721709     1.49000
C2490       C  0.59142557  0.02066696  0.17291277     0.92200
O2491       O  0.51593035  0.04955954  0.17758531    -0.81300
O2492       O  0.94337001  0.48153827  0.22086422    -0.74900
Al2493     Al  0.54062348  0.04074221  0.20011571     1.90100
O2494       O  0.94669878  0.50276873  0.18222252    -0.73900
O2495       O  0.94182071  0.40433298  0.21188408    -0.73800
O2496       O  0.94919886  0.43057044  0.17369177    -0.79500
O2497       O  0.50845813  0.41838144  0.21972535    -0.77700
O2498       O  0.50772214  0.48202530  0.19841715    -1.13800
O2499       O  0.58591455  0.48954126  0.21232924    -0.73000
C2500       C  0.59566215  0.02210058  0.22338716     0.97700
C2501       C  0.97616361  0.03790855  0.17244091     0.94100
Al2502     Al  0.95013860  0.45684377  0.19744224     1.55600
O2503       O  0.58966293  0.04758297  0.18405416    -0.77600
C2504       C  0.96819748  0.39406533  0.22052223     0.98300
C2505       C  0.96148301  0.02335550  0.22206537     0.93200
O2506       O  0.49764623  0.04703669  0.21537653    -0.82900
N2507       N  0.60534692  0.15861646  0.33811149    -0.37200
N2508       N  0.54038476  0.15354494  0.36339873    -0.57800
N2509       N  0.59867320  0.15272354  0.39205707    -0.37200
N2510       N  0.66494120  0.15702091  0.36627024    -0.57800
C2511       C  0.57951227  0.16901724  0.32718633     0.26400
C2512       C  0.64407213  0.17324156  0.32875974     0.26400
C2513       C  0.57541755  0.16845237  0.40089576     0.26400
C2514       C  0.63710695  0.16725015  0.40166326     0.26400
C2515       C  0.51468956  0.13939871  0.34785866     0.35000
C2516       C  0.51354339  0.14284490  0.37858283     0.35000
C2517       C  0.67835224  0.14425040  0.35113504     0.35000
C2518       C  0.67411136  0.14007996  0.38195696     0.35000
C2519       C  0.60266000  0.19257367  0.31112066    -0.22500
C2520       C  0.64357842  0.19537234  0.31210409    -0.22500
C2521       C  0.60005255  0.19429521  0.41585805    -0.22500
C2522       C  0.63920427  0.19407232  0.41609018    -0.22500
C2523       C  0.47033058  0.11894229  0.35314772    -0.23500
C2524       C  0.46957438  0.12215822  0.37278597    -0.23500
C2525       C  0.69761399  0.11951177  0.35715886    -0.23500
C2526       C  0.69481459  0.11681761  0.37691715    -0.23500
C2527       C  0.53312348  0.14849274  0.32938479    -0.18900
C2528       C  0.67220202  0.15551762  0.33234398    -0.18900
C2529       C  0.66474439  0.14871131  0.40023332    -0.18900
C2530       C  0.53080015  0.15590237  0.39692973    -0.18900
H2531       H  0.58998452  0.20336631  0.29924056     0.14000
H2532       H  0.66845488  0.20921382  0.30101814     0.14000
H2533       H  0.59059234  0.21024815  0.42619773     0.14000
H2534       H  0.66481681  0.20922426  0.42662984     0.14000
H2535       H  0.94420674  0.10975266  0.34433083     0.12300
H2536       H  0.94351089  0.11456397  0.38222489     0.12300
H2537       H  0.71164350  0.10477071  0.34831053     0.12300
H2538       H  0.70650770  0.09996428  0.38641737     0.12300
H2539       H  0.59364667  0.13465348  0.34898697     0.25600
H2540       H  0.58620068  0.12786322  0.38216505     0.25600
N2541       N  0.82667279  0.40452735  0.39840126    -0.37200
N2542       N  0.85347875  0.49460464  0.36489503    -0.57800
N2543       N  0.87542044  0.44455292  0.33745708    -0.37200
N2544       N  0.87585905  0.37502683  0.36080612    -0.57800
C2545       C  0.80767064  0.42564357  0.38976464     0.26400
C2546       C  0.81709226  0.37057968  0.38743382     0.26400
C2547       C  0.88500018  0.48425928  0.32990786     0.26400
C2548       C  0.89508770  0.42825579  0.32633697     0.26400
C2549       C  0.82997215  0.49799129  0.37923799     0.35000
C2550       C  0.84024574  0.50528460  0.34856824     0.35000
C2551       C  0.85838807  0.34156324  0.37379906     0.35000
C2552       C  0.87219859  0.35768525  0.34378052     0.35000
C2553       C  0.78462712  0.40415691  0.37366054    -0.22500
C2554       C  0.79100824  0.36907213  0.37207958    -0.22500
C2555       C  0.91435354  0.49528557  0.31496629    -0.22500
C2556       C  0.91971975  0.45987695  0.31230425    -0.22500
C2557       C  0.80439864  0.51536392  0.37198422    -0.23500
C2558       C  0.80998605  0.51883044  0.35239265    -0.23500
C2559       C  0.84684265  0.30247901  0.36533394    -0.23500
C2560       C  0.85452833  0.31263515  0.34612772    -0.23500
C2561       C  0.81625241  0.46713178  0.39459031    -0.18900
C2562       C  0.83677801  0.34484401  0.38968458    -0.18900
C2563       C  0.88378200  0.38313810  0.32665709    -0.18900
C2564       C  0.85520145  0.50054884  0.33078191    -0.18900
H2565       H  0.76725535  0.41429511  0.36365251     0.14000
H2566       H  0.77966571  0.34617341  0.36060166     0.14000
H2567       H  0.92505863  0.52306302  0.30514498     0.14000
H2568       H  0.93695073  0.45793846  0.30013521     0.14000
H2569       H  0.77842898  0.02152199  0.37857412     0.12300
H2570       H  0.79003491  0.02850255  0.34117870     0.12300
H2571       H  0.82796465  0.26980877  0.37163373     0.12300
H2572       H  0.84305806  0.28876596  0.33522055     0.12300
H2573       H  0.84880388  0.41520541  0.40983162     0.25600
H2574       H  0.84967944  0.42611285  0.34699313     0.25600
N2575       N  0.55928941  0.39526360  0.38886548    -0.37200
N2576       N  0.50381311  0.33256021  0.36110282    -0.57800
N2577       N  0.56639145  0.39305486  0.33392223    -0.37200
N2578       N  0.62144768  0.45654064  0.36094436    -0.57800
C2579       C  0.53640880  0.35607408  0.39834374     0.26400
C2580       C  0.59574219  0.42003677  0.39949756     0.26400
C2581       C  0.52980417  0.36829417  0.32348284     0.26400
C2582       C  0.59149376  0.43019684  0.32348775     0.26400
C2583       C  0.47677385  0.31280910  0.37620133     0.35000
C2584       C  0.48499257  0.30772960  0.34580306     0.35000
C2585       C  0.64367494  0.47859042  0.37640426     0.35000
C2586       C  0.64965136  0.47363189  0.34597327     0.35000
C2587       C  0.55989659  0.35534317  0.41429192    -0.22500
C2588       C  0.59639820  0.39583866  0.41536059    -0.22500
C2589       C  0.53073698  0.39091654  0.30680949    -0.22500
C2590       C  0.56968710  0.43012224  0.30683799    -0.22500
C2591       C  0.43853754  0.27648159  0.37012577    -0.23500
C2592       C  0.44596340  0.27066249  0.35144796    -0.23500
C2593       C  0.68605932  0.51121127  0.37112897    -0.23500
C2594       C  0.69044797  0.50686079  0.35200104    -0.23500
C2595       C  0.49138346  0.32413519  0.39517857    -0.18900
C2596       C  0.62979765  0.46352037  0.39532340    -0.18900
C2597       C  0.63654475  0.46005717  0.32711995    -0.18900
C2598       C  0.49991377  0.32316328  0.32693158    -0.18900
H2599       H  0.55031398  0.32898360  0.42473249     0.14000
H2600       H  0.62096637  0.40587649  0.42653829     0.14000
H2601       H  0.50712779  0.37902774  0.29525274     0.14000
H2602       H  0.58195701  0.45462773  0.29539574     0.14000
H2603       H  0.90674022  0.25600401  0.37917441     0.12300
H2604       H  0.92249882  0.24369194  0.34418732     0.12300
H2605       H  0.71130297  0.03413506  0.38122922     0.12300
H2606       H  0.71897669  0.02688285  0.34471263     0.12300
H2607       H  0.54808377  0.40621816  0.37723768     0.25600
H2608       H  0.57725021  0.38219684  0.34570888     0.25600
C2609       C  0.80874114  0.40038104  0.82465345     0.85900
C2610       C  0.80673123  0.43496293  0.81123279    -0.54300
C2611       C  0.84317073  0.45682408  0.79940086     0.08800
C2612       C  0.87816786  0.44176866  0.80237403     0.19800
C2613       C  0.81523721  0.37047907  0.81108014    -0.55100
C2614       C  0.85064724  0.39220243  0.79891477     0.08900
C2615       C  0.85288665  0.42657325  0.83488007    -0.54600
C2616       C  0.88969552  0.44603290  0.82376535     0.09500
H2617       H  0.77775394  0.43907980  0.81008886     0.14000
H2618       H  0.90777834  0.45973300  0.79305458    -0.00300
H2619       H  0.79074963  0.33601245  0.80968543     0.14300
H2620       H  0.85491259  0.43403004  0.84957445     0.14100
C2621       C  0.64467144  0.20009248  0.82472642     0.85900
C2622       C  0.68131300  0.19979103  0.81254713    -0.54300
C2623       C  0.66607459  0.16363021  0.80124993     0.08800
C2624       C  0.61542076  0.13150697  0.80360272     0.19800
C2625       C  0.60965982  0.19622583  0.81006967    -0.55100
C2626       C  0.59591843  0.16144577  0.79834220     0.08900
C2627       C  0.62389178  0.15611522  0.83558601    -0.54600
C2628       C  0.60633770  0.12000532  0.82483451     0.09500
H2629       H  0.71445379  0.22797412  0.81135814     0.14000
H2630       H  0.60220004  0.10130322  0.79526069    -0.00300
H2631       H  0.59999579  0.22110960  0.80804277     0.14300
H2632       H  0.62631074  0.15371397  0.85064032     0.14100
C2633       C  0.60750305  0.36469855  0.82577051     0.85900
C2634       C  0.57342839  0.33013145  0.81234220    -0.54300
C2635       C  0.55255246  0.34594738  0.80037795     0.08800
C2636       C  0.56859953  0.39535719  0.80300551     0.19800
C2637       C  0.63948814  0.40197896  0.81228936    -0.55100
C2638       C  0.61895654  0.41725876  0.80004669     0.08900
C2639       C  0.58083984  0.38243086  0.83567429    -0.54600
C2640       C  0.56300293  0.40114874  0.82402064     0.09500
H2641       H  0.56890871  0.29739760  0.81143224     0.14000
H2642       H  0.55163561  0.40834439  0.79360888    -0.00300
H2643       H  0.67459797  0.41227250  0.81127577     0.14300
H2644       H  0.57357536  0.37807911  0.85053360     0.14100
O2645       O  0.58829143  0.04639522  0.83427100    -0.82400
C2646       C  0.93848500  0.44865792  0.88294935     0.97000
O2647       O  0.94510843  0.48222975  0.87312313    -0.71500
O2648       O  0.52436486  0.04624112  0.88076259    -0.75100
Al2649     Al  0.99437020  0.01995984  0.85724398     1.49000
C2650       C  0.56589438  0.06689811  0.88310571     0.92200
O2651       O  0.57654845  0.47787808  0.87923580    -0.81300
O2652       O  0.51004013  0.42273614  0.83211915    -0.74900
Al2653     Al  0.57900469  0.01044963  0.85696028     1.90100
O2654       O  0.52492929  0.41281379  0.87044092    -0.73900
O2655       O  0.93899700  0.43112812  0.84202733    -0.73800
O2656       O  0.96093055  0.43035020  0.87980440    -0.79500
O2657       O  0.96255461  0.50031097  0.83439102    -0.77700
O2658       O  0.51881445  0.48476297  0.85647821    -1.13800
O2659       O  0.54297188  0.06983026  0.84285577    -0.73000
C2660       C  0.57695662  0.07565139  0.83370254     0.97700
C2661       C  0.55706073  0.43661151  0.88124832     0.94100
Al2662     Al  0.98669499  0.43036584  0.85661628     1.55600
O2663       O  0.59072863  0.05924556  0.87274375    -0.77600
C2664       C  0.93382888  0.46013157  0.83295588     0.98300
C2665       C  0.55018575  0.43216186  0.83187184     0.93200
O2666       O  0.57900885  0.46451080  0.84115286    -0.82900
C2667       C  0.70648809  0.44724490  0.56428644     0.85900
C2668       C  0.74058257  0.45564847  0.58057382    -0.54300
C2669       C  0.74834698  0.49042286  0.59188305     0.08800
C2670       C  0.72363994  0.01175541  0.58604783     0.19800
C2671       C  0.66512245  0.44158659  0.57452457    -0.55100
C2672       C  0.67323420  0.47460473  0.58631409     0.08900
C2673       C  0.72470891  0.49136820  0.55370101    -0.54600
C2674       C  0.73529561  0.02600089  0.56494790     0.09500
H2675       H  0.75535544  0.43506953  0.58322795     0.14000
H2676       H  0.72582093  0.03816173  0.59486034    -0.00300
H2677       H  0.63349367  0.41123105  0.57460299     0.14300
H2678       H  0.72744684  0.49493851  0.53872618     0.14100
C2679       C  0.54769368  0.24518022  0.56449880     0.85900
C2680       C  0.54340004  0.26591121  0.58272266    -0.54300
C2681       C  0.50877576  0.23682524  0.59449826     0.08800
C2682       C  0.98250726  0.18855136  0.58582375     0.19800
C2683       C  0.55113062  0.20501324  0.57180934    -0.55100
C2684       C  0.51887731  0.17759293  0.58417497     0.08900
C2685       C  0.50198857  0.22741825  0.55564134    -0.54600
C2686       C  0.96730919  0.19754254  0.56613717     0.09500
H2687       H  0.56630877  0.29980431  0.58600427     0.14000
H2688       H  0.95481712  0.16348004  0.59455746    -0.00300
H2689       H  0.58175963  0.20380211  0.57082082     0.14300
H2690       H  0.49659822  0.24503966  0.54406966     0.14100
C2691       C  0.74758950  0.28492262  0.56499709     0.85900
C2692       C  0.72478921  0.25801831  0.58330367    -0.54300
C2693       C  0.75159933  0.24676144  0.59410260     0.08800
C2694       C  0.79870111  0.26535560  0.58552534     0.19800
C2695       C  0.79001634  0.32507370  0.57232468    -0.55100
C2696       C  0.81549870  0.31552513  0.58422528     0.08900
C2697       C  0.76234975  0.25614859  0.55523488    -0.54600
C2698       C  0.78987159  0.24634909  0.56542603     0.09500
H2699       H  0.69202610  0.25115165  0.58764212     0.14000
H2700       H  0.82169182  0.25712217  0.59330175    -0.00300
H2701       H  0.79387138  0.35773427  0.57180296     0.14300
H2702       H  0.74584985  0.23829598  0.54270832     0.14100
O2703       O  0.91597742  0.21478246  0.55090197    -0.82400
C2704       C  0.79114145  0.07926125  0.50838161     0.97000
O2705       O  0.83186580  0.09881434  0.51221043    -0.71500
O2706       O  0.91111374  0.16283206  0.52042009    -0.75100
Al2707     Al  0.85773364  0.12347549  0.53576646     1.49000
C2708       C  0.91883658  0.19638113  0.51015847     0.92200
O2709       O  0.83356662  0.23340477  0.51948083    -0.81300
O2710       O  0.77535514  0.18346687  0.54775528    -0.74900
Al2711     Al  0.87006579  0.21713126  0.53569754     1.90100
O2712       O  0.78426881  0.16850548  0.51018449    -0.73900
O2713       O  0.76209140  0.10168319  0.55602519    -0.73800
O2714       O  0.76506687  0.08735904  0.51769542    -0.79500
O2715       O  0.80651660  0.07542496  0.55012491    -0.77700
O2716       O  0.83474778  0.15908962  0.53546479    -1.13800
O2717       O  0.89003682  0.14564595  0.55925492    -0.73000
C2718       C  0.92104691  0.18528034  0.55958709     0.97700
C2719       C  0.80213220  0.20959797  0.50844065     0.94100
Al2720     Al  0.77658114  0.13728614  0.53322694     1.55600
O2721       O  0.89788411  0.21638877  0.51322744    -0.77600
C2722       C  0.77058489  0.07065004  0.55745967     0.98300
C2723       C  0.80335031  0.21523787  0.55766158     0.93200
O2724       O  0.84348028  0.22389491  0.55833322    -0.82900
N2725       N  0.93179867  0.32039994  0.66655056    -0.37200
N2726       N  0.95369270  0.27648290  0.69814113    -0.57800
N2727       N  0.89965309  0.29464257  0.72142765    -0.37200
N2728       N  0.87306128  0.33382522  0.69081930    -0.57800
C2729       C  0.95072491  0.30057537  0.65723861     0.26400
C2730       C  0.90750395  0.32907015  0.65355562     0.26400
C2731       C  0.91042385  0.27093106  0.73356154     0.26400
C2732       C  0.86573236  0.29697494  0.72923113     0.26400
C2733       C  0.98105022  0.27654920  0.68477151     0.35000
C2734       C  0.96938106  0.27088940  0.71504972     0.35000
C2735       C  0.87387767  0.35827194  0.67543643     0.35000
C2736       C  0.86156846  0.34889092  0.70595227     0.35000
C2737       C  0.94038904  0.29936541  0.63806896    -0.22500
C2738       C  0.91160389  0.31467368  0.63599115    -0.22500
C2739       C  0.88202741  0.25657430  0.74905570    -0.22500
C2740       C  0.85331742  0.27256322  0.74620165    -0.22500
C2741       C  0.51019876  0.26430737  0.69418494    -0.23500
C2742       C  0.50242750  0.26020654  0.71349732    -0.23500
C2743       C  0.86145637  0.38827125  0.68067236    -0.23500
C2744       C  0.85380831  0.38242562  0.70007384    -0.23500
C2745       C  0.97661194  0.28269073  0.66518876    -0.18900
C2746       C  0.88323475  0.35126712  0.65673649    -0.18900
C2747       C  0.85667236  0.33106826  0.72471441    -0.18900
C2748       C  0.95104834  0.27132909  0.73273181    -0.18900
H2749       H  0.95163617  0.28832181  0.62638368     0.14000
H2750       H  0.89517705  0.31389773  0.62279322     0.14000
H2751       H  0.88365619  0.23908602  0.76167718     0.14000
H2752       H  0.82938545  0.27068756  0.75645026     0.14000
H2753       H  0.53728554  0.26343927  0.68712320     0.12300
H2754       H  0.52198291  0.25525360  0.72438305     0.12300
H2755       H  0.85851641  0.41183683  0.67147531     0.12300
H2756       H  0.84216636  0.39947802  0.70871340     0.12300
H2757       H  0.93789992  0.33018174  0.68055080     0.25600
H2758       H  0.92090525  0.31664339  0.71111996     0.25600
N2759       N  0.69537738  0.07805163  0.66977375    -0.37200
N2760       N  0.68343580  0.00755204  0.69448608    -0.57800
N2761       N  0.72613167  0.07541182  0.72236973    -0.37200
N2762       N  0.74078847  0.14686660  0.69812444    -0.57800
C2763       C  0.69041465  0.04630435  0.65801304     0.26400
C2764       C  0.71819747  0.11630030  0.65994784     0.26400
C2765       C  0.72309501  0.03965581  0.73136731     0.26400
C2766       C  0.75093700  0.11015243  0.73339237     0.26400
C2767       C  0.65655949  0.98408156  0.68025322     0.35000
C2768       C  0.66868451  0.98239165  0.71040012     0.35000
C2769       C  0.72993054  0.16820158  0.68483435     0.35000
C2770       C  0.74394184  0.16629236  0.71470373     0.35000
C2771       C  0.71177042  0.06471435  0.64088821    -0.22500
C2772       C  0.72917262  0.10903266  0.64205121    -0.22500
C2773       C  0.74825909  0.05211576  0.74783854    -0.22500
C2774       C  0.76580875  0.09662217  0.74914379    -0.22500
C2775       C  0.61938501  0.44589833  0.68473319    -0.23500
C2776       C  0.62661743  0.44277882  0.70399704    -0.23500
C2777       C  0.72904761  0.20349820  0.69260063    -0.23500
C2778       C  0.73728926  0.20185159  0.71179100    -0.23500
C2779       C  0.66171694  0.00122711  0.66157280    -0.18900
C2780       C  0.72300728  0.15626842  0.66574319    -0.18900
C2781       C  0.74801988  0.14872052  0.73242030    -0.18900
C2782       C  0.68810341  0.99668247  0.72834696    -0.18900
H2783       H  0.71302737  0.04780647  0.62855605     0.14000
H2784       H  0.74633359  0.13297103  0.63071873     0.14000
H2785       H  0.74900040  0.03048084  0.75893453     0.14000
H2786       H  0.78348785  0.11580875  0.76126251     0.14000
H2787       H  0.59249861  0.42154587  0.67639111     0.12300
H2788       H  0.60674608  0.41514098  0.71347383     0.12300
H2789       H  0.72179253  0.22682769  0.68534116     0.12300
H2790       H  0.73718007  0.22335758  0.72243709     0.12300
H2791       H  0.67800958  0.07352551  0.68240351     0.25600
H2792       H  0.70379778  0.07423794  0.71209311     0.25600
N2793       N  0.93573438  0.10273941  0.71956479    -0.37200
N2794       N  0.00291721  0.13089431  0.69051251    -0.57800
N2795       N  0.92870089  0.08554232  0.66543837    -0.37200
N2796       N  0.86171127  0.05887088  0.69515768    -0.57800
C2797       C  0.97243668  0.13361067  0.72817001     0.26400
C2798       C  0.90086516  0.09269350  0.73105297     0.26400
C2799       C  0.96305795  0.11321468  0.65402301     0.26400
C2800       C  0.89099253  0.07629764  0.65589320     0.26400
C2801       C  0.02909015  0.13838593  0.70583326     0.35000
C2802       C  0.02566157  0.13036356  0.67523774     0.35000
C2803       C  0.84114517  0.03872475  0.71160251     0.35000
C2804       C  0.83570478  0.03423280  0.68099383     0.35000
C2805       C  0.96041212  0.14560657  0.74472567    -0.22500
C2806       C  0.91523487  0.11931863  0.74666809    -0.22500
C2807       C  0.94705489  0.12285366  0.63762237    -0.22500
C2808       C  0.90206932  0.09896634  0.63847455    -0.22500
C2809       C  0.56761656  0.14286616  0.70096631    -0.23500
C2810       C  0.56529597  0.13710568  0.68145938    -0.23500
C2811       C  0.79637997  0.50609000  0.70944764    -0.23500
C2812       C  0.79173008  0.50169800  0.68995987    -0.23500
C2813       C  0.01555327  0.14113890  0.72436958    -0.18900
C2814       C  0.85985034  0.05364312  0.72966398    -0.18900
C2815       C  0.84741792  0.04430956  0.66167571    -0.18900
C2816       C  0.00809644  0.12502621  0.65668315    -0.18900
H2817       H  0.98244447  0.16791611  0.75524074     0.14000
H2818       H  0.89601013  0.11844989  0.75878366     0.14000
H2819       H  0.96592745  0.14373284  0.62579559     0.14000
H2820       H  0.88113190  0.09856738  0.62700016     0.14000
H2821       H  0.59603661  0.15077823  0.70995488     0.12300
H2822       H  0.59152675  0.13972025  0.67238703     0.12300
H2823       H  0.77263136  0.48527776  0.72009495     0.12300
H2824       H  0.76352369  0.47636464  0.68255482     0.12300
H2825       H  0.93569621  0.08315532  0.70878552     0.25600
H2826       H  0.93072304  0.06877962  0.67754602     0.25600
C2827       C  0.83310050  0.34270357  0.60175616    -0.06700
C2828       C  0.80351724  0.33466820  0.61687561    -0.17800
C2829       C  0.81864062  0.34254043  0.63573034     0.10500
C2830       C  0.86490533  0.36345753  0.63935906    -0.06600
C2831       C  0.89366241  0.38440462  0.62364558    -0.17900
C2832       C  0.87852430  0.37219142  0.60488495     0.10500
S2833       S  0.77681622  0.32025330  0.65414581    -0.32800
S2834       S  0.91915294  0.39094314  0.58607669    -0.32900
H2835       H  0.88913392  0.38190876  0.57098831     0.28500
H2836       H  0.79463107  0.29730946  0.66405702     0.28500
H2837       H  0.76806407  0.31669725  0.61440513     0.19100
H2838       H  0.92916349  0.40325402  0.62607195     0.19100
C2839       C  0.74096436  0.22563271  0.61353485    -0.06700
C2840       C  0.77663064  0.23742980  0.62631249    -0.17800
C2841       C  0.77059848  0.21813871  0.64432090     0.10500
C2842       C  0.72774286  0.18782158  0.65051541    -0.06600
C2843       C  0.69137706  0.17691857  0.63840356    -0.17900
C2844       C  0.69766339  0.19399757  0.61972856     0.10500
S2845       S  0.81864255  0.22782123  0.65819492    -0.32800
S2846       S  0.65047584  0.16865971  0.60407624    -0.32900
H2847       H  0.67514231  0.16823470  0.58844227     0.28500
H2848       H  0.84373287  0.22948424  0.64232272     0.28500
H2849       H  0.81020421  0.26149382  0.62246763     0.19100
H2850       H  0.65866654  0.15098884  0.64277699     0.19100
C2851       C  0.99275762  0.26233657  0.65161216    -0.06700
C2852       C  0.95904989  0.22536819  0.64276127    -0.17800
C2853       C  0.96187762  0.22032768  0.62337588     0.10500
C2854       C  0.50239506  0.24607757  0.61442868    -0.06600
C2855       C  0.53820398  0.27954170  0.62434274    -0.17900
C2856       C  0.53280606  0.28936055  0.64288277     0.10500
S2857       S  0.90944932  0.19380898  0.61103398    -0.32800
S2858       S  0.57701636  0.33904371  0.65261597    -0.32900
H2859       H  0.55831506  0.33640472  0.67045417     0.28500
H2860       H  0.92460566  0.22396629  0.59553303     0.28500
H2861       H  0.92657918  0.20771817  0.64948874     0.19100
H2862       H  0.57002128  0.29969260  0.61750398     0.19100
C2863       C  0.53316256  0.16131598  0.60136215    -0.06700
C2864       C  0.06178615  0.19049733  0.61330666    -0.17800
C2865       C  0.06206184  0.17914037  0.63256052     0.10500
C2866       C  0.03505348  0.13512342  0.63880549    -0.06600
C2867       C  0.01697785  0.10283445  0.62474442    -0.17900
C2868       C  0.51516254  0.11642278  0.60617842     0.10500
S2869       S  0.09229659  0.22291626  0.64873831    -0.32800
S2870       S  0.48401464  0.07399258  0.58947668    -0.32900
H2871       H  0.50056171  0.10065889  0.57294508     0.28500
H2872       H  0.05480838  0.21356315  0.65968350     0.28500
H2873       H  0.07989647  0.22484106  0.60901249     0.19100
H2874       H  0.99743760  0.06861274  0.62917481     0.19100
C2875       C  0.77280069  0.50234713  0.61035513    -0.06700
C2876       C  0.78522422  0.97405718  0.62012960    -0.17800
C2877       C  0.80410411  0.98389802  0.63830477     0.10500
C2878       C  0.81369436  0.02393799  0.64650593    -0.06600
C2879       C  0.80257319  0.05206323  0.63650593    -0.17900
C2880       C  0.78811699  0.54447485  0.61777057     0.10500
S2881       S  0.81449291  0.94362968  0.65000590    -0.32800
S2882       S  0.80641872  0.59272734  0.60236869    -0.32900
H2883       H  0.81066003  0.62188523  0.61653912     0.28500
H2884       H  0.84513252  0.97071582  0.66350838     0.28500
H2885       H  0.77588091  0.94237156  0.61444163     0.19100
H2886       H  0.81144988  0.08330661  0.64261590     0.19100
C2887       C  0.64785701  0.46507494  0.60446955    -0.06700
C2888       C  0.62964288  0.98277931  0.61121011    -0.17800
C2889       C  0.62189119  0.98709924  0.63029926     0.10500
C2890       C  0.64161032  0.97342177  0.64475215    -0.06600
C2891       C  0.65700758  0.94492683  0.64004816    -0.17900
C2892       C  0.65177307  0.43855746  0.61916733     0.10500
S2893       S  0.59395587  0.01730083  0.63546576    -0.32800
S2894       S  0.66422755  0.39565361  0.61475625    -0.32900
H2895       H  0.62750846  0.37348988  0.60270985     0.28500
H2896       H  0.58655429  0.00439155  0.65481440     0.28500
H2897       H  0.62105396  0.99948173  0.60018790     0.19100
H2898       H  0.65967263  0.43268046  0.64924022     0.19100
C2899       C  0.52506601  0.32185903  0.78360570    -0.06700
C2900       C  0.53218375  0.34602722  0.76646424    -0.17800
C2901       C  0.50711289  0.32724709  0.75023319     0.10500
C2902       C  0.47591628  0.28193428  0.75036997    -0.06600
C2903       C  0.46952202  0.25688445  0.76719746    -0.17900
C2904       C  0.49265393  0.27657492  0.78394238     0.10500
S2905       S  0.51322062  0.36242047  0.72976966    -0.32800
S2906       S  0.47634870  0.24295196  0.80541408    -0.32900
H2907       H  0.48229696  0.27680300  0.81736980     0.28500
H2908       H  0.54323148  0.40263310  0.73788214     0.28500
H2909       H  0.55719529  0.38026759  0.76570849     0.19100
H2910       H  0.94764337  0.22831931  0.76623112     0.19100
C2911       C  0.63889782  0.43972707  0.78181852    -0.06700
C2912       C  0.66112166  0.42343208  0.77105509    -0.17800
C2913       C  0.67299274  0.43704214  0.75218497     0.10500
C2914       C  0.66149759  0.46684845  0.74368282    -0.06600
C2915       C  0.63828581  0.48226271  0.75430439    -0.17900
C2916       C  0.62858893  0.47052855  0.77343082     0.10500
S2917       S  0.70419443  0.41652805  0.74017327    -0.32800
S2918       S  0.60633441  0.49858076  0.78663362    -0.32900
H2919       H  0.62363201  0.49454848  0.80429035     0.28500
H2920       H  0.69291965  0.42328395  0.72163519     0.28500
H2921       H  0.66833660  0.39899365  0.77719471     0.19100
H2922       H  0.63147365  0.50694810  0.74807625     0.19100
C2923       C  0.57565601  0.15870389  0.77928422    -0.06700
C2924       C  0.54411842  0.11684782  0.77333204    -0.17800
C2925       C  0.52804044  0.10990780  0.75476728     0.10500
C2926       C  0.54166295  0.14594234  0.74182724    -0.06600
C2927       C  0.57343306  0.18785301  0.74753600    -0.17900
C2928       C  0.59156319  0.19451897  0.76587180     0.10500
S2929       S  0.48819265  0.05433920  0.74873438    -0.32800
S2930       S  0.63576623  0.24907009  0.77068969    -0.32900
H2931       H  0.66411961  0.23478953  0.77841030     0.28500
H2932       H  0.99893122  0.05871423  0.72914228     0.28500
H2933       H  0.53240432  0.08895200  0.78317588     0.19100
H2934       H  0.58343255  0.21565289  0.73776573     0.19100
C2935       C  0.69031419  0.16191543  0.78402492    -0.06700
C2936       C  0.66469832  0.14301292  0.76772441    -0.17800
C2937       C  0.68309576  0.13908834  0.75101988     0.10500
C2938       C  0.72945415  0.15746415  0.74958473    -0.06600
C2939       C  0.75599026  0.17727119  0.76552875    -0.17900
C2940       C  0.73690566  0.17872456  0.78285481     0.10500
S2941       S  0.64615464  0.10811624  0.73193775    -0.32800
S2942       S  0.77344661  0.19902774  0.80301141    -0.32900
H2943       H  0.74181284  0.17003051  0.81634751     0.28500
H2944       H  0.60611599  0.08946821  0.74228891     0.28500
H2945       H  0.62955846  0.13080236  0.76769293     0.19100
H2946       H  0.79137031  0.18930090  0.76479984     0.19100
C2947       C  0.84353867  0.48282402  0.78205485    -0.06700
C2948       C  0.85400286  0.47190247  0.76461523    -0.17800
C2949       C  0.85522313  0.49401246  0.74765860     0.10500
C2950       C  0.84521042  0.52843055  0.74756053    -0.06600
C2951       C  0.83320452  0.53865974  0.76493406    -0.17900
C2952       C  0.83306023  0.51693417  0.78213340     0.10500
S2953       S  0.87219443  0.47763422  0.72682169    -0.32800
S2954       S  0.82309407  0.53692677  0.80373982    -0.32900
H2955       H  0.85079855  0.52736078  0.81527950     0.28500
H2956       H  0.90573275  0.51992896  0.72168590     0.28500
H2957       H  0.86261835  0.44649800  0.76403621     0.19100
H2958       H  0.82618779  0.06012576  0.76349112     0.19100
C2959       C  0.85402409  0.35437029  0.74152734    -0.06700
C2960       C  0.89334512  0.37609042  0.75225472    -0.17800
C2961       C  0.89258673  0.38474984  0.77145546     0.10500
C2962       C  0.85197937  0.37468668  0.78007521    -0.06600
C2963       C  0.81283152  0.35494423  0.76908441    -0.17900
C2964       C  0.81327069  0.34414824  0.75008431     0.10500
S2965       S  0.94412880  0.40577210  0.78444454    -0.32800
S2966       S  0.76047557  0.31606355  0.73803759    -0.32900
H2967       H  0.77595567  0.31389953  0.72003487     0.28500
H2968       H  0.92450696  0.38839920  0.80231057     0.28500
H2969       H  0.92454836  0.38242100  0.74606715     0.19100
H2970       H  0.78159296  0.34847956  0.77523408     0.19100
C2971       C  0.96974117  0.10990629  0.27543947    -0.06700
C2972       C  0.96034689  0.13736046  0.28640087    -0.17800
C2973       C  0.47822928  0.14783786  0.30458658     0.10500
C2974       C  0.50620053  0.13229894  0.31174628    -0.06600
C2975       C  0.01601062  0.10815589  0.30123132    -0.17900
C2976       C  0.99958933  0.09684380  0.28278658     0.10500
S2977       S  0.46883892  0.18669540  0.31694775    -0.32800
S2978       S  0.02100849  0.06985791  0.26825930    -0.32900
H2979       H  0.05429442  0.07298903  0.28083903     0.28500
H2980       H  0.51162925  0.20987209  0.32480618     0.28500
H2981       H  0.43541992  0.14508840  0.28174174     0.19100
H2982       H  0.03835903  0.09744602  0.30691279     0.19100
C2983       C  0.85073254  0.01717290  0.27160267    -0.06700
C2984       C  0.85350493  0.05140808  0.28251713    -0.17800
C2985       C  0.84734323  0.04654838  0.30225640     0.10500
C2986       C  0.83643441  0.50462886  0.31198386    -0.06600
C2987       C  0.82152434  0.46805292  0.30014948    -0.17900
C2988       C  0.83017161  0.47367581  0.28054906     0.10500
S2989       S  0.85894124  0.09481294  0.31494336    -0.32800
S2990       S  0.82044301  0.42651066  0.26738727    -0.32900
H2991       H  0.82011903  0.44429868  0.24925370     0.28500
H2992       H  0.87727538  0.08585988  0.33103699     0.28500
H2993       H  0.86528773  0.08359136  0.27595964     0.19100
H2994       H  0.81048448  0.43583442  0.30660419     0.19100
C2995       C  0.48594951  0.29577997  0.30941005    -0.06700
C2996       C  0.52088080  0.30307440  0.29692475    -0.17800
C2997       C  0.01320503  0.30182487  0.27827051     0.10500
C2998       C  0.97042801  0.28646274  0.27087368    -0.06600
C2999       C  0.93423654  0.26725862  0.28341438    -0.17900
C3000       C  0.94031704  0.27564565  0.30273664     0.10500
S3001       S  0.06169544  0.32395481  0.26325778    -0.32800
S3002       S  0.39418374  0.26667782  0.31409101    -0.32900
H3003       H  0.41753841  0.30794464  0.32234004     0.28500
H3004       H  0.03906523  0.30340833  0.24659953     0.28500
H3005       H  0.55437311  0.31728554  0.30238309     0.19100
H3006       H  0.90079132  0.25244547  0.27780368     0.19100
C3007       C  0.89369269  0.33735846  0.27198398    -0.06700
C3008       C  0.85296177  0.31480036  0.28180554    -0.17800
C3009       C  0.84742683  0.33037698  0.29919583     0.10500
C3010       C  0.88548135  0.36340099  0.30852835    -0.06600
C3011       C  0.92624343  0.38262181  0.29912235    -0.17900
C3012       C  0.92745421  0.37650120  0.27983950     0.10500
S3013       S  0.79164507  0.30737221  0.30833119    -0.32800
S3014       S  0.96251600  0.42463063  0.26511707    -0.32900
H3015       H  0.99044053  0.45057555  0.27971873     0.28500
H3016       H  0.79928632  0.34397008  0.31873861     0.28500
H3017       H  0.82522828  0.28620869  0.27581635     0.19100
H3018       H  0.95553530  0.40791422  0.30598519     0.19100
C3019       C  0.69311854  0.00980273  0.27336697    -0.06700
C3020       C  0.67137336  0.46567946  0.27641155    -0.17800
C3021       C  0.66224190  0.44908084  0.29517931     0.10500
C3022       C  0.66701708  0.47752675  0.31010602    -0.06600
C3023       C  0.69420220  0.02276280  0.30716427    -0.17900
C3024       C  0.71219387  0.03780721  0.28892869     0.10500
S3025       S  0.64180948  0.39130722  0.29915099    -0.32800
S3026       S  0.76001556  0.09186768  0.28653879    -0.32900
H3027       H  0.77830244  0.08182226  0.27109247     0.28500
H3028       H  0.65179157  0.39424868  0.31867689     0.28500
H3029       H  0.66012413  0.44336793  0.26470376     0.19100
H3030       H  0.70150385  0.04671305  0.31787937     0.19100
C3031       C  0.68233449  0.13757096  0.31557526    -0.06700
C3032       C  0.71275487  0.16702932  0.30213695    -0.17800
C3033       C  0.71001151  0.15621955  0.28296786     0.10500
C3034       C  0.68102297  0.11221979  0.27739140    -0.06600
C3035       C  0.65171749  0.08264132  0.29142547    -0.17900
C3036       C  0.65129626  0.09499422  0.31004420     0.10500
S3037       S  0.73836799  0.20242413  0.26665767    -0.32800
S3038       S  0.60914590  0.05654742  0.32646462    -0.32900
H3039       H  0.58295739  0.02485027  0.31317116     0.28500
H3040       H  0.70557207  0.18442053  0.25249971     0.28500
H3041       H  0.73450411  0.20072609  0.30609112     0.19100
H3042       H  0.62877473  0.04911743  0.28840344     0.19100
C3043       C  0.81589500  0.50224067  0.45308784    -0.06700
C3044       C  0.80318448  0.45906749  0.44898083    -0.17800
C3045       C  0.79856829  0.44590107  0.43026689     0.10500
C3046       C  0.81744351  0.47828013  0.41512087    -0.06600
C3047       C  0.83773674  0.52271456  0.41992448    -0.17900
C3048       C  0.83553813  0.53495083  0.43846238     0.10500
S3049       S  0.76073412  0.38763055  0.42784425    -0.32800
S3050       S  0.85147212  0.09304475  0.44218069    -0.32900
H3051       H  0.88561598  0.09823041  0.45461344     0.28500
H3052       H  0.73816761  0.39147127  0.41190682     0.28500
H3053       H  0.78813052  0.43401024  0.46017082     0.19100
H3054       H  0.85257705  0.54822954  0.40896108     0.19100
C3055       C  0.70249575  0.50621446  0.44742147    -0.06700
C3056       C  0.71858283  0.49294320  0.43221798    -0.17800
C3057       C  0.69683250  0.48089183  0.41492671     0.10500
C3058       C  0.65994563  0.48638829  0.41143543    -0.06600
C3059       C  0.64547097  0.50347869  0.42585038    -0.17900
C3060       C  0.66595587  0.51282685  0.44395172     0.10500
S3061       S  0.71381031  0.45208630  0.39928279    -0.32800
S3062       S  0.64302167  0.03048036  0.46425015    -0.32900
H3063       H  0.61042613  0.03372940  0.45335581     0.28500
H3064       H  0.67234159  0.42154618  0.39204636     0.28500
H3065       H  0.74621095  0.48769161  0.43415251     0.19100
H3066       H  0.61485444  0.00711535  0.42495851     0.19100
C3067       C  0.70456369  0.17600484  0.45509687    -0.06700
C3068       C  0.73775067  0.18117769  0.44217303    -0.17800
C3069       C  0.72694514  0.16598654  0.42364282     0.10500
C3070       C  0.68179897  0.14047698  0.41867129    -0.06600
C3071       C  0.65038949  0.12319100  0.43371371    -0.17900
C3072       C  0.66044951  0.14348556  0.45140669     0.10500
S3073       S  0.77209324  0.18305533  0.40704327    -0.32800
S3074       S  0.61489298  0.12927302  0.46752502    -0.32900
H3075       H  0.63624894  0.16504725  0.47954670     0.28500
H3076       H  0.75468822  0.19946558  0.39304008     0.28500
H3077       H  0.77246307  0.20081616  0.44581156     0.19100
H3078       H  0.61573686  0.10126502  0.43039557     0.19100
C3079       C  0.82614978  0.31790392  0.40738371    -0.06700
C3080       C  0.85872644  0.33113197  0.42160839    -0.17800
C3081       C  0.84708546  0.31851796  0.44079065     0.10500
C3082       C  0.80195218  0.29031041  0.44585960    -0.06600
C3083       C  0.76996315  0.27753526  0.43137384    -0.17900
C3084       C  0.78129239  0.29000429  0.41245196     0.10500
S3085       S  0.89037452  0.34473253  0.45813344    -0.32800
S3086       S  0.73615119  0.27145670  0.39560427    -0.32900
H3087       H  0.76094718  0.27288061  0.37974015     0.28500
H3088       H  0.86274243  0.34701202  0.47197716     0.28500
H3089       H  0.89288807  0.35482099  0.41802139     0.19100
H3090       H  0.73530227  0.25654877  0.43449972     0.19100
C3091       C  0.46408254  0.30459777  0.41322397    -0.06700
C3092       C  0.47248016  0.33587124  0.42734714    -0.17800
C3093       C  0.48050149  0.32797878  0.44631143     0.10500
C3094       C  0.47103368  0.28555543  0.45199307    -0.06600
C3095       C  0.44693428  0.25151829  0.43937732    -0.17900
C3096       C  0.44639575  0.26028478  0.41984769     0.10500
S3097       S  0.50782794  0.37401386  0.46170486    -0.32800
S3098       S  0.92365784  0.21432677  0.40622758    -0.32900
H3099       H  0.46021906  0.23133333  0.39236663     0.28500
H3100       H  0.49179671  0.34968368  0.47884132     0.28500
H3101       H  0.48298217  0.36947669  0.42293484     0.19100
H3102       H  0.93295703  0.21936779  0.44513992     0.19100
C3103       C  0.49759987  0.19241126  0.44821811    -0.06700
C3104       C  0.51423513  0.22171919  0.43241514    -0.17800
C3105       C  0.51806923  0.20846799  0.41446009     0.10500
C3106       C  0.50676049  0.16459658  0.41185268    -0.06600
C3107       C  0.48982252  0.13463119  0.42739004    -0.17900
C3108       C  0.98774014  0.15014034  0.44580451     0.10500
S3109       S  0.54653518  0.25106298  0.39639700    -0.32800
S3110       S  0.97542125  0.11256723  0.46591434    -0.32900
H3111       H  0.97051976  0.07663803  0.45571541     0.28500
H3112       H  0.52476481  0.22447315  0.38089964     0.28500
H3113       H  0.52493077  0.25595085  0.43375719     0.19100
H3114       H  0.98907453  0.10493078  0.42599640     0.19100
C3115       C  0.02884282  0.15189088  0.12272810    -0.06700
C3116       C  0.03027178  0.12092451  0.11085523    -0.17800
C3117       C  0.03950943  0.12996639  0.09138215     0.10500
C3118       C  0.05054203  0.17178338  0.08381146    -0.06600
C3119       C  0.56038990  0.19885978  0.09648906    -0.17900
C3120       C  0.04707242  0.19547996  0.11582418     0.10500
S3121       S  0.03041870  0.08529147  0.07665055    -0.32800
S3122       S  0.55518635  0.23303076  0.13050755    -0.32900
H3123       H  0.55268856  0.21132973  0.14796740     0.28500
H3124       H  0.99939153  0.08884456  0.06476072     0.28500
H3125       H  0.01839323  0.08766859  0.11615708     0.19100
H3126       H  0.57191583  0.23207234  0.09115601     0.19100
C3127       C  0.84538050  0.33864794  0.07546360    -0.06700
C3128       C  0.88981206  0.36416428  0.08090684    -0.17800
C3129       C  0.90088622  0.37342888  0.10018962     0.10500
C3130       C  0.86731476  0.35175039  0.11434768    -0.06600
C3131       C  0.82297312  0.33305049  0.10860484    -0.17900
C3132       C  0.81210226  0.32976394  0.08921633     0.10500
S3133       S  0.95740203  0.41284315  0.10627111    -0.32800
S3134       S  0.75447261  0.30724468  0.08282330    -0.32900
H3135       H  0.76289993  0.31985019  0.06346505     0.28500
H3136       H  0.97384784  0.42432025  0.08756392     0.28500
H3137       H  0.91579645  0.37378024  0.07039677     0.19100
H3138       H  0.79669453  0.31903551  0.11915906     0.19100
C3139       C  0.94401922  0.30532092  0.11209406    -0.06700
C3140       C  0.98238212  0.33330313  0.10135168    -0.17800
C3141       C  0.49087391  0.32280620  0.08322922     0.10500
C3142       C  0.95323865  0.28536380  0.07410933    -0.06600
C3143       C  0.91338029  0.26102775  0.08410980    -0.17900
C3144       C  0.91192402  0.26593768  0.10366420     0.10500
S3145       S  0.54428554  0.35697849  0.07216293    -0.32800
S3146       S  0.87714952  0.21685464  0.11793018    -0.32900
H3147       H  0.84934705  0.19154775  0.10316424     0.28500
H3148       H  0.54568888  0.32386143  0.06205500     0.28500
H3149       H  0.50960257  0.36448909  0.10733439     0.19100
H3150       H  0.88716226  0.23190678  0.07764095     0.19100
C3151       C  0.67488978  0.10123066  0.11140444    -0.06700
C3152       C  0.69254023  0.08728329  0.09693444    -0.17800
C3153       C  0.69485778  0.10097119  0.07809295     0.10500
C3154       C  0.68269406  0.13254961  0.07338219    -0.06600
C3155       C  0.66390385  0.14626832  0.08730585    -0.17900
C3156       C  0.66050494  0.13157783  0.10631413     0.10500
S3157       S  0.72014595  0.08323422  0.06058197    -0.32800
S3158       S  0.64396838  0.15798453  0.12336627    -0.32900
H3159       H  0.67245103  0.15800796  0.13779382     0.28500
H3160       H  0.73066117  0.05731090  0.07282932     0.28500
H3161       H  0.70405381  0.06448584  0.09991285     0.19100
H3162       H  0.65684033  0.17244883  0.08377885     0.19100
C3163       C  0.91225491  0.06466547  0.11051923    -0.06700
C3164       C  0.92309776  0.03923065  0.09905385    -0.17800
C3165       C  0.90572279  0.02814662  0.08076558     0.10500
C3166       C  0.88040974  0.04616525  0.07316453    -0.06600
C3167       C  0.87407655  0.07581191  0.08371987    -0.17900
C3168       C  0.88621686  0.08208490  0.10276728     0.10500
S3169       S  0.90921026  0.48214700  0.06896379    -0.32800
S3170       S  0.86106644  0.10612312  0.11675526    -0.32900
H3171       H  0.85299413  0.07753468  0.13251419     0.28500
H3172       H  0.93922903  0.47928662  0.08175062     0.28500
H3173       H  0.94372579  0.02646216  0.10466245     0.19100
H3174       H  0.85271447  0.08786651  0.07810949     0.19100
C3175       C  0.65685570  0.95217552  0.08281737    -0.06700
C3176       C  0.64032682  0.98123124  0.08434305    -0.17800
C3177       C  0.62953047  0.98972860  0.10210602     0.10500
C3178       C  0.64801972  0.98021223  0.11832788    -0.06600
C3179       C  0.65551946  0.94465098  0.11723442    -0.17900
C3180       C  0.65443853  0.92702650  0.09939494     0.10500
S3181       S  0.59047159  0.00943438  0.10295978    -0.32800
S3182       S  0.65703261  0.87710345  0.09845356    -0.32900
H3183       H  0.64729710  0.87103698  0.07893824     0.28500
H3184       H  0.57038386  0.98702299  0.12005198     0.28500
H3185       H  0.63775776  0.99931217  0.07219137     0.19100
H3186       H  0.66293201  0.93136216  0.12995619     0.19100
C3187       C  0.67586230  0.14679903  0.93579368    -0.06700
C3188       C  0.66441419  0.10823673  0.94669824    -0.17800
C3189       C  0.68134010  0.10975505  0.96510146     0.10500
C3190       C  0.71105083  0.15072510  0.97287468    -0.06600
C3191       C  0.72324254  0.18900094  0.96177329    -0.17900
C3192       C  0.70667983  0.18763831  0.94342641     0.10500
S3193       S  0.66193291  0.05846415  0.97802301    -0.32800
S3194       S  0.72569606  0.23869382  0.93000917    -0.32900
H3195       H  0.74617119  0.26708775  0.94515831     0.28500
H3196       H  0.69764733  0.07278562  0.99076159     0.28500
H3197       H  0.64055174  0.07661512  0.94125239     0.19100
H3198       H  0.74554727  0.22051520  0.96773475     0.19100
C3199       C  0.56163242  0.13989319  0.94379875    -0.06700
C3200       C  0.57354705  0.18174391  0.95009126    -0.17800
C3201       C  0.56685128  0.18843055  0.96876392     0.10500
C3202       C  0.54298339  0.15203276  0.98122154    -0.06600
C3203       C  0.53039812  0.10992134  0.97520137    -0.17900
C3204       C  0.54076709  0.10342799  0.95685854     0.10500
S3205       S  0.58718394  0.24429336  0.97548098    -0.32800
S3206       S  0.52648905  0.04804002  0.95164589    -0.32900
H3207       H  0.56644859  0.06010384  0.94220484     0.28500
H3208       H  0.59063855  0.23694064  0.99501176     0.28500
H3209       H  0.58880277  0.21001199  0.94043744     0.19100
H3210       H  0.51142468  0.08190828  0.98469782     0.19100
C3211       C  0.87522856  0.34600898  0.93737224    -0.06700
C3212       C  0.90514941  0.37232103  0.95137375    -0.17800
C3213       C  0.90537067  0.35472524  0.96961615     0.10500
C3214       C  0.87226488  0.31086677  0.97431793    -0.06600
C3215       C  0.84625967  0.28454890  0.95907690    -0.17900
C3216       C  0.85073301  0.30103752  0.94057993     0.10500
S3217       S  0.94852996  0.38852393  0.98599869    -0.32800
S3218       S  0.82738825  0.26343188  0.92138309    -0.32900
H3219       H  0.85595756  0.29221476  0.90712641     0.28500
H3220       H  0.96650331  0.42787175  0.97509657     0.28500
H3221       H  0.92700072  0.40687482  0.94817133     0.19100
H3222       H  0.82141384  0.25067136  0.96113963     0.19100
C3223       C  0.85679739  0.44800782  0.94324657    -0.06700
C3224       C  0.86676803  0.49209785  0.94364039    -0.17800
C3225       C  0.86385834  0.51056696  0.96058836     0.10500
C3226       C  0.85618909  0.48649291  0.97787233    -0.06600
C3227       C  0.85453813  0.44611184  0.97789278    -0.17900
C3228       C  0.84708920  0.42392044  0.96094926     0.10500
S3229       S  0.87104347  0.06284837  0.95860522    -0.32800
S3230       S  0.81360262  0.36487435  0.96331156    -0.32900
H3231       H  0.79988133  0.36139085  0.98231609     0.28500
H3232       H  0.87480581  0.07072580  0.97815950     0.28500
H3233       H  0.87339440  0.51116162  0.93047787     0.19100
H3234       H  0.84749356  0.42784126  0.99128682     0.19100
C3235       C  0.53307151  0.33160043  0.93841619    -0.06700
C3236       C  0.55784711  0.33741951  0.95527628    -0.17800
C3237       C  0.53800482  0.31759484  0.97272716     0.10500
C3238       C  0.49167434  0.28973238  0.97382706    -0.09000
C3239       C  0.46645561  0.28333001  0.95717794    -0.17900
C3240       C  0.48648518  0.30275064  0.93949462     0.10500
S3241       S  0.57273763  0.32750322  0.99354206    -0.32800
S3242       S  0.45250540  0.28611564  0.91837042    -0.32900
H3243       H  0.41327539  0.25316908  0.92706134     0.28500
H3244       H  0.61410726  0.35250509  0.98446511     0.28500
H3245       H  0.59323105  0.35888807  0.95527761     0.19100
H3246       H  0.43111074  0.26126434  0.95778352     0.19100
C3247       C  0.63601960  0.44981275  0.94157149    -0.06700
C3248       C  0.68053418  0.47822499  0.94559908    -0.17800
C3249       C  0.69338282  0.49009060  0.96432347     0.10500
C3250       C  0.66272802  0.46612754  0.97932171    -0.06600
C3251       C  0.61740413  0.44412284  0.97491826    -0.17900
C3252       C  0.60412945  0.44051996  0.95589196     0.10500
S3253       S  0.75121779  0.03101443  0.96759725    -0.32800
S3254       S  0.54773367  0.42600898  0.95027203    -0.32900
H3255       H  0.54025138  0.43964382  0.96772851     0.28500
H3256       H  0.74531428  0.03948964  0.98641452     0.28500
H3257       H  0.70507193  0.49087358  0.93429525     0.19100
H3258       H  0.59244690  0.42756646  0.98582243     0.19100
C3259       C  0.57416814  0.91607667  0.89611173     0.85900
C3260       C  0.53867238  0.87641772  0.90816126    -0.54300
C3261       C  0.55587736  0.85765117  0.92082172     0.08800
C3262       C  0.60702895  0.88055152  0.91955802     0.19800
C3263       C  0.60473333  0.94755087  0.91095727    -0.55100
C3264       C  0.62131984  0.92927548  0.92347596     0.08900
C3265       C  0.60279591  0.89993484  0.88675972    -0.54600
C3266       C  0.61773360  0.87878089  0.89851834     0.09500
H3267       H  0.50412878  0.86818218  0.90814948     0.14000
H3268       H  0.62304223  0.86655239  0.92893635    -0.00300
H3269       H  0.60861380  0.97984674  0.91291256     0.14300
H3270       H  0.61584659  0.90964783  0.87258245     0.14100
C3271       C  0.89941967  0.92248997  0.89634853     0.85900
C3272       C  0.89570940  0.95098722  0.91170363    -0.54300
C3273       C  0.86099099  0.92791521  0.92437494     0.08800
C3274       C  0.83223782  0.87909970  0.91928185     0.19800
C3275       C  0.90145482  0.88584829  0.90774157    -0.55100
C3276       C  0.86724445  0.86350939  0.92001342     0.08900
C3277       C  0.85456947  0.89977604  0.88658045    -0.54600
C3278       C  0.81888434  0.87911490  0.89815941     0.09500
H3279       H  0.92092914  0.98505238  0.91345613     0.14000
H3280       H  0.80208089  0.85914766  0.92787141    -0.00300
H3281       H  0.93056299  0.88175588  0.90808366     0.14300
H3282       H  0.85116214  0.89467118  0.87165305     0.14100
C3283       C  0.58611611  0.60185560  0.89760787     0.85900
C3284       C  0.62847458  0.60693035  0.90777346    -0.54300
C3285       C  0.64861438  0.64230097  0.91950637     0.08800
C3286       C  0.62540246  0.66974171  0.91907141     0.19800
C3287       C  0.55660691  0.60073131  0.91396915    -0.55100
C3288       C  0.57784575  0.63583479  0.92563913     0.08900
C3289       C  0.59989278  0.64587246  0.88745335    -0.54600
C3290       C  0.62270035  0.68179645  0.89813001     0.09500
H3291       H  0.63826679  0.58201969  0.90737311     0.14000
H3292       H  0.64076398  0.69860076  0.92806695    -0.00300
H3293       H  0.52325115  0.57372480  0.91661851     0.14300
H3294       H  0.58678223  0.64824991  0.87382420     0.14100
O3295       O  0.76198042  0.88406617  0.88040659    -0.82400
C3296       C  0.65529460  0.73536381  0.83912912     0.97000
O3297       O  0.69579716  0.76328256  0.84131408    -0.71500
O3298       O  0.76725629  0.83985382  0.84919277    -0.75100
Al3299     Al  0.72050315  0.79216153  0.86464570     1.49000
C3300       C  0.76854831  0.87140085  0.83925572     0.92200
O3301       O  0.66224052  0.87598119  0.85074309    -0.81300
O3302       O  0.61450791  0.81984866  0.88109131    -0.74900
Al3303     Al  0.70921012  0.87394827  0.86566701     1.90100
O3304       O  0.61858977  0.80780658  0.84269104    -0.73900
O3305       O  0.62596730  0.74923117  0.88817705    -0.73800
O3306       O  0.62592547  0.73666334  0.84933293    -0.79500
O3307       O  0.68068581  0.73904566  0.87947388    -0.77700
O3308       O  0.68528200  0.81575445  0.86535212    -1.13800
O3309       O  0.75034914  0.81815542  0.88796768    -0.73000
C3310       C  0.77342931  0.85923302  0.88945310     0.97700
C3311       C  0.63055126  0.84798756  0.84074942     0.94100
Al3312     Al  0.62631624  0.78128773  0.86544848     1.55600
O3313       O  0.74014576  0.88311535  0.84208501    -0.77600
C3314       C  0.64522482  0.72666847  0.88895558     0.98300
C3315       C  0.63875398  0.85460044  0.89021219     0.93200
O3316       O  0.68058830  0.87266617  0.88908446    -0.82900
N3317       N  0.75741020  0.97110663  0.00213879    -0.37200
N3318       N  0.69073126  0.95363448  0.03162399    -0.57800
N3319       N  0.75876696  0.47769281  0.05650772    -0.37200
N3320       N  0.82935004  0.00148447  0.02618056    -0.57800
C3321       C  0.71655256  0.94578721  0.99510938     0.26400
C3322       C  0.78572114  0.96487166  0.99148702     0.26400
C3323       C  0.72405464  0.45618712  0.06884750     0.26400
C3324       C  0.79613477  0.48487736  0.06583989     0.26400
C3325       C  0.66908677  0.95712828  0.01619538     0.35000
C3326       C  0.66885964  0.95431933  0.04713608     0.35000
C3327       C  0.85247141  0.01025378  0.00988128     0.35000
C3328       C  0.85817967  0.02555136  0.03955998     0.35000
C3329       C  0.71814950  0.92175647  0.98024280    -0.22500
C3330       C  0.76196586  0.93420447  0.97776048    -0.22500
C3331       C  0.74084571  0.44990631  0.08607102    -0.22500
C3332       C  0.78544319  0.46697553  0.08399768    -0.22500
C3333       C  0.63192033  0.95884051  0.02181520    -0.23500
C3334       C  0.63043161  0.95459536  0.04141234    -0.23500
C3335       C  0.89709087  0.03920054  0.01293515    -0.23500
C3336       C  0.90067114  0.04960128  0.03190147    -0.23500
C3337       C  0.68266062  0.95565623  0.99757552    -0.18900
C3338       C  0.83250159  0.98986953  0.99286896    -0.18900
C3339       C  0.84036686  0.51348769  0.05977181    -0.18900
C3340       C  0.67964848  0.44824714  0.06558844    -0.18900
H3341       H  0.69118352  0.90132693  0.97085150     0.14000
H3342       H  0.77444837  0.92405591  0.96617771     0.14000
H3343       H  0.72505715  0.43692556  0.09954988     0.14000
H3344       H  0.80796640  0.46850679  0.09513808     0.14000
H3345       H  0.60776649  0.96190242  0.01305868     0.12300
H3346       H  0.60397625  0.95248409  0.05009117     0.12300
H3347       H  0.92383457  0.05166838  0.00262793     0.12300
H3348       H  0.93101749  0.07130835  0.03928905     0.12300
H3349       H  0.76584906  0.99756087  0.01084910     0.25600
H3350       H  0.76325275  0.99732979  0.04277890     0.25600
C3351       C  0.62791393  0.53267835  0.15863732     0.85900
C3352       C  0.63328632  0.56657052  0.14281283    -0.54300
C3353       C  0.66861472  0.57782456  0.13062983     0.08800
C3354       C  0.69456979  0.55388673  0.13595479     0.19800
C3355       C  0.62422853  0.49373684  0.14787289    -0.55100
C3356       C  0.65747328  0.50423309  0.13532272     0.08900
C3357       C  0.67259119  0.55184126  0.16839690    -0.54600
C3358       C  0.70809128  0.56575922  0.15689184     0.09500
H3359       H  0.60844749  0.57634596  0.14045296     0.14000
H3360       H  0.72442452  0.56241329  0.12733865    -0.00300
H3361       H  0.59665622  0.96357122  0.14836384     0.14300
H3362       H  0.67653967  0.55396694  0.18335918     0.14100
C3363       C  0.93692657  0.86597228  0.15616484     0.85900
C3364       C  0.96074199  0.85530500  0.14015370    -0.54300
C3365       C  0.93157435  0.81937931  0.12939384     0.08800
C3366       C  0.88286506  0.79939874  0.13602091     0.19800
C3367       C  0.90102652  0.87171432  0.14548983    -0.55100
C3368       C  0.87513346  0.83895968  0.13378771     0.08900
C3369       C  0.91348863  0.82237397  0.16720855    -0.54600
C3370       C  0.88451540  0.78685406  0.15725658     0.09500
H3371       H  0.99611230  0.87490294  0.13734700     0.14000
H3372       H  0.85663602  0.77222546  0.12805174    -0.00300
H3373       H  0.90325283  0.90359242  0.14370706     0.14300
H3374       H  0.92961696  0.81766938  0.17948637     0.14100
C3375       C  0.96438617  0.56486930  0.16032451     0.85900
C3376       C  0.93819956  0.54297513  0.14231620    -0.54300
C3377       C  0.92892876  0.57018984  0.13092488     0.08800
C3378       C  0.94792881  0.61692445  0.13868434     0.19800
C3379       C  0.00608557  0.60663192  0.15279870    -0.55100
C3380       C  0.99791225  0.63239575  0.14047653     0.08900
C3381       C  0.93522737  0.58030274  0.16951940    -0.54600
C3382       C  0.92771497  0.60899227  0.15888094     0.09500
H3383       H  0.92836958  0.50946102  0.13887651     0.14000
H3384       H  0.94205056  0.63999528  0.12969061    -0.00300
H3385       H  0.03902567  0.61013962  0.15359831     0.14300
H3386       H  0.91328580  0.56196701  0.18113325     0.14100
O3387       O  0.89865630  0.73505397  0.17500389    -0.82400
C3388       C  0.75565210  0.60677508  0.21500512     0.97000
O3389       O  0.77545179  0.64758955  0.21188229    -0.71500
O3390       O  0.84230752  0.72700500  0.20455732    -0.75100
Al3391     Al  0.80391677  0.67681162  0.18869899     1.49000
C3392       C  0.87407911  0.73210350  0.21531864     0.92200
O3393       O  0.90959407  0.64523313  0.20573557    -0.81300
O3394       O  0.86199452  0.59437616  0.17511815    -0.74900
Al3395     Al  0.89715807  0.68576410  0.18993196     1.90100
O3396       O  0.84224277  0.59392564  0.21284821    -0.73900
O3397       O  0.78271807  0.58690542  0.16613541    -0.73800
O3398       O  0.76335369  0.58235938  0.20464383    -0.79500
O3399       O  0.75711058  0.63058139  0.17350328    -0.77700
O3400       O  0.83860651  0.65229095  0.18888460    -1.13800
O3401       O  0.83002025  0.71147925  0.16565160    -0.73000
C3402       C  0.87050230  0.74136017  0.16553842     0.97700
C3403       C  0.88351916  0.61130473  0.21560129     0.94100
Al3404     Al  0.81465313  0.59432992  0.18947048     1.55600
O3405       O  0.89213786  0.70896155  0.21294361    -0.77600
C3406       C  0.75275516  0.59728845  0.16481724     0.98300
C3407       C  0.89661547  0.62310138  0.16635892     0.93200
O3408       O  0.90777956  0.66336904  0.16697146    -0.82900
N3409       N  0.48609378  0.70127563  0.00165435    -0.37200
N3410       N  0.51855357  0.66767685  0.03214422    -0.57800
N3411       N  0.99083139  0.71448660  0.05479925    -0.37200
N3412       N  0.45678455  0.74794128  0.02406516    -0.57800
C3413       C  0.48918128  0.66839132  0.99383090     0.26400
C3414       C  0.46406680  0.71363655  0.98925546     0.26400
C3415       C  0.99390536  0.68453788  0.06622572     0.26400
C3416       C  0.96077892  0.72276312  0.06285453     0.26400
C3417       C  0.53939767  0.66270484  0.01734467     0.35000
C3418       C  0.54292852  0.67165426  0.04778905     0.35000
C3419       C  0.46461685  0.77138981  0.00761078     0.35000
C3420       C  0.45983621  0.77420357  0.03826687     0.35000
C3421       C  0.46608246  0.65765725  0.97675985    -0.22500
C3422       C  0.45076646  0.68671614  0.97374573    -0.22500
C3423       C  0.96417285  0.67174688  0.08107698    -0.22500
C3424       C  0.94337670  0.69588276  0.07908144    -0.22500
C3425       C  0.57747462  0.66259555  0.02355335    -0.23500
C3426       C  0.57969848  0.66819485  0.04311027    -0.23500
C3427       C  0.47120166  0.81266832  0.01128467    -0.23500
C3428       C  0.46715918  0.81421402  0.03081428    -0.23500
C3429       C  0.52309057  0.65868691  0.99864002    -0.18900
C3430       C  0.46706322  0.75500363  0.98976728    -0.18900
C3431       C  0.95635231  0.75967788  0.05768024    -0.18900
C3432       C  0.02868663  0.67515888  0.06534214    -0.18900
H3433       H  0.46480825  0.63465854  0.96654528     0.14000
H3434       H  0.43469241  0.68960694  0.96096252     0.14000
H3435       H  0.95995386  0.64929590  0.09276859     0.14000
H3436       H  0.91939951  0.69380988  0.08914480     0.14000
H3437       H  0.60124108  0.65963971  0.01484925     0.12300
H3438       H  0.10204662  0.66403729  0.05208645     0.12300
H3439       H  0.47969663  0.83909802  0.00105049     0.12300
H3440       H  0.47138562  0.84207767  0.03862207     0.12300
H3441       H  0.50656143  0.72080880  0.01245167     0.25600
H3442       H  0.51398991  0.73508974  0.04439658     0.25600
N3443       N  0.79908470  0.72169035  0.00225514    -0.37200
N3444       N  0.72862385  0.66717639  0.02597759    -0.57800
N3445       N  0.77546450  0.73486784  0.05277153    -0.37200
N3446       N  0.85164269  0.79262523  0.02833142    -0.57800
C3447       C  0.77937599  0.68228941  0.99408224     0.26400
C3448       C  0.84173107  0.74363769  0.99650678     0.26400
C3449       C  0.75048703  0.69871883  0.06366373     0.26400
C3450       C  0.80911672  0.76293027  0.06378706     0.26400
C3451       C  0.70823603  0.65075173  0.00942635     0.35000
C3452       C  0.69723011  0.65461171  0.03933083     0.35000
C3453       C  0.86204102  0.81232282  0.01090071     0.35000
C3454       C  0.84966247  0.82067958  0.04046394     0.35000
C3455       C  0.81024422  0.67742011  0.98382485    -0.22500
C3456       C  0.85026776  0.71585524  0.98590731    -0.22500
C3457       C  0.76987754  0.70314001  0.08148452    -0.22500
C3458       C  0.80690164  0.74379250  0.08151856    -0.22500
C3459       C  0.66261256  0.62696716  0.01221592    -0.23500
C3460       C  0.65575715  0.62800928  0.03156423    -0.23500
C3461       C  0.86630394  0.85368651  0.01203852    -0.23500
C3462       C  0.85995054  0.85956851  0.03096638    -0.23500
C3463       C  0.73289792  0.65655812  0.99276354    -0.18900
C3464       C  0.86382494  0.78992240  0.99460048    -0.18900
C3465       C  0.83435341  0.80791863  0.05935522    -0.18900
C3466       C  0.70828304  0.66433913  0.05845963    -0.18900
H3467       H  0.80388549  0.65061810  0.97474309     0.14000
H3468       H  0.88026188  0.72453909  0.97827383     0.14000
H3469       H  0.75765430  0.68062519  0.09361275     0.14000
H3470       H  0.82788350  0.75883832  0.09364636     0.14000
H3471       H  0.63718025  0.60984802  0.00172366     0.12300
H3472       H  0.62419418  0.61176213  0.03896854     0.12300
H3473       H  0.87112655  0.87641802  0.00045839     0.12300
H3474       H  0.85929553  0.88748780  0.03667775     0.12300
H3475       H  0.78202283  0.73641780  0.00778702     0.25600
H3476       H  0.76624856  0.74292959  0.03973927     0.25600
C3477       C  0.95677773  0.71705587  0.49446099     0.85900
C3478       C  0.95600761  0.75558109  0.48360931    -0.54300
C3479       C  0.48661421  0.77460531  0.47116148     0.08800
C3480       C  0.52163148  0.75925781  0.47172393     0.19800
C3481       C  0.95823207  0.68869656  0.47851582    -0.55100
C3482       C  0.49315926  0.70981047  0.46691177     0.08900
C3483       C  0.00258160  0.73606270  0.50343270    -0.54600
C3484       C  0.53637832  0.75953070  0.49264514     0.09500
H3485       H  0.92662018  0.75921203  0.48329148     0.14000
H3486       H  0.55077750  0.77949044  0.46244535    -0.00300
H3487       H  0.93203175  0.65518396  0.47665419     0.14300
H3488       H  0.00779507  0.72658110  0.51737551     0.14100
C3489       C  0.78192281  0.72826951  0.49417341     0.85900
C3490       C  0.74004619  0.69092175  0.48509542    -0.54300
C3491       C  0.71949041  0.70364387  0.47208351     0.08800
C3492       C  0.73924836  0.75429801  0.47145595     0.19800
C3493       C  0.81012365  0.75646723  0.47711637    -0.55100
C3494       C  0.78823708  0.77139340  0.46509407     0.08900
C3495       C  0.76685096  0.75720738  0.50349091    -0.54600
C3496       C  0.74264390  0.76958402  0.49227684     0.09500
H3497       H  0.73294917  0.65706549  0.48559759     0.14000
H3498       H  0.71977341  0.76508993  0.46245697    -0.00300
H3499       H  0.84259760  0.76061513  0.47414302     0.14300
H3500       H  0.77691903  0.76942173  0.51752475     0.14100
C3501       C  0.77287774  0.54282955  0.49344556     0.85900
C3502       C  0.80847353  0.54147411  0.48112485    -0.54300
C3503       C  0.79156385  0.00732106  0.46943016     0.08800
C3504       C  0.74056381  0.97623032  0.47180723     0.19800
C3505       C  0.73870456  0.54220190  0.47875998    -0.55100
C3506       C  0.72207639  0.00750622  0.46767252     0.08900
C3507       C  0.75094821  0.49802141  0.50366713    -0.54600
C3508       C  0.73253836  0.96275846  0.49294310     0.09500
H3509       H  0.84334849  0.56620171  0.48141896     0.14000
H3510       H  0.72578768  0.94715721  0.46266520    -0.00300
H3511       H  0.73279649  0.56961371  0.47666791     0.14300
H3512       H  0.76327459  0.49372989  0.51720638     0.14100
O3513       O  0.73032572  0.89571855  0.50275279    -0.82400
C3514       C  0.58635794  0.77260677  0.55081192     0.97000
O3515       O  0.58723193  0.80439594  0.54134031    -0.71500
O3516       O  0.65857511  0.88085563  0.54845588    -0.75100
Al3517     Al  0.63401639  0.85128070  0.52546253     1.49000
C3518       C  0.69855566  0.90992886  0.55097666     0.92200
O3519       O  0.73493312  0.83802447  0.54901672    -0.81300
O3520       O  0.67833052  0.77264156  0.50216747    -0.74900
Al3521     Al  0.72918995  0.86419852  0.52578999     1.90100
O3522       O  0.69303282  0.76943017  0.54142015    -0.73900
O3523       O  0.59576420  0.75881129  0.50988221    -0.73800
O3524       O  0.61568285  0.76224948  0.54784894    -0.79500
O3525       O  0.60365207  0.82329422  0.50231888    -0.77700
O3526       O  0.67023936  0.82883729  0.52523257    -1.13800
O3527       O  0.67355289  0.90383726  0.51035874    -0.73000
C3528       C  0.71001744  0.91731155  0.50150545     0.97700
C3529       C  0.72320597  0.79800269  0.55174995     0.94100
Al3530     Al  0.64766531  0.77090042  0.52518262     1.55600
O3531       O  0.72894276  0.90965038  0.54123507    -0.77600
C3532       C  0.58237652  0.78197094  0.50090607     0.98300
C3533       C  0.72028747  0.79202326  0.50119357     0.93200
O3534       O  0.74320409  0.82626439  0.51079368    -0.82900
C3535       C  0.71923384  0.58602323  0.22981685     0.85900
C3536       C  0.71756607  0.61534572  0.24518610    -0.54300
C3537       C  0.68175622  0.59424879  0.25761140     0.08800
C3538       C  0.65226757  0.54469495  0.25296450     0.19800
C3539       C  0.71978795  0.54835689  0.24131313    -0.55100
C3540       C  0.68613456  0.52807378  0.25423010     0.08900
C3541       C  0.67422545  0.56750051  0.22044689    -0.54600
C3542       C  0.63907279  0.54391192  0.23193192     0.09500
H3543       H  0.74560991  0.64767224  0.24703515     0.14000
H3544       H  0.62216968  0.52434209  0.26159813    -0.00300
H3545       H  0.74842940  0.54355754  0.24149930     0.14300
H3546       H  0.66960460  0.57989486  0.20697557     0.14100
C3547       C  0.89740782  0.77041190  0.22876680     0.85900
C3548       C  0.93451690  0.76631609  0.23931654    -0.54300
C3549       C  0.96113330  0.80015723  0.25025576     0.08800
C3550       C  0.95131381  0.83801206  0.24825138     0.19800
C3551       C  0.87347950  0.78066982  0.24480304    -0.55100
C3552       C  0.90245773  0.81791680  0.25488051     0.08900
C3553       C  0.91952583  0.81355700  0.21739879    -0.54600
C3554       C  0.94856380  0.84896469  0.22727377     0.09500
H3555       H  0.93240982  0.73464332  0.24194013     0.14000
H3556       H  0.97731045  0.86594622  0.25595938    -0.00300
H3557       H  0.83811195  0.76114288  0.24759510     0.14300
H3558       H  0.90324472  0.81803279  0.20512230     0.14100
C3559       C  0.90017050  0.58822029  0.22968821     0.85900
C3560       C  0.86104403  0.54996467  0.24056395    -0.54300
C3561       C  0.87252913  0.52774057  0.25346434     0.08800
C3562       C  0.92252899  0.54249939  0.25273618     0.19800
C3563       C  0.93209623  0.61559575  0.24551995    -0.55100
C3564       C  0.94445961  0.59181955  0.25763311     0.08900
C3565       C  0.92528109  0.56819391  0.22027674    -0.54600
C3566       C  0.93551486  0.54238792  0.23167663     0.09500
H3567       H  0.82842405  0.54718279  0.24119749     0.14000
H3568       H  0.93082995  0.52221904  0.26249611    -0.00300
H3569       H  0.94285279  0.65004016  0.24726400     0.14300
H3570       H  0.94176708  0.58041270  0.20690209     0.14100
O3571       O  0.56924012  0.53748491  0.22300840    -0.82400
C3572       C  0.96230848  0.90389164  0.16989393     0.97000
O3573       O  0.49387902  0.90456433  0.18137268    -0.71500
O3574       O  0.56419772  0.98039318  0.17471944    -0.75100
Al3575     Al  0.53666581  0.95161294  0.19736875     1.49000
C3576       C  0.59057385  0.51929517  0.17274919     0.92200
O3577       O  0.51568131  0.54962383  0.17741633    -0.81300
O3578       O  0.94277067  0.98224481  0.21948650    -0.74900
Al3579     Al  0.53988944  0.54006304  0.19991804     1.90100
O3580       O  0.94628172  0.00351693  0.18082916    -0.73900
O3581       O  0.94007924  0.90458604  0.21038340    -0.73800
O3582       O  0.94878451  0.93095470  0.17238235    -0.79500
O3583       O  0.51020395  0.91893721  0.21987643    -0.77700
O3584       O  0.50872193  0.98259250  0.19871951    -1.13800
O3585       O  0.58730463  0.99078551  0.21254429    -0.73000
C3586       C  0.59427904  0.52086240  0.22313705     0.97700
C3587       C  0.97634904  0.53740846  0.17387308     0.94100
Al3588     Al  0.94938344  0.95736107  0.19603810     1.55600
O3589       O  0.58896810  0.54648630  0.18381492    -0.77600
C3590       C  0.96587660  0.89404112  0.21927850     0.98300
C3591       C  0.96152360  0.52261074  0.22337420     0.93200
O3592       O  0.49686070  0.54629244  0.21524712    -0.82900
N3593       N  0.60660395  0.66082768  0.33737803    -0.37200
N3594       N  0.54244787  0.65683551  0.36300410    -0.57800
N3595       N  0.60179993  0.65728348  0.39131521    -0.37200
N3596       N  0.66741417  0.66048821  0.36528970    -0.57800
C3597       C  0.58008416  0.67029894  0.32644596     0.26400
C3598       C  0.64466691  0.67449800  0.32762342     0.26400
C3599       C  0.57849929  0.67269333  0.40035539     0.26400
C3600       C  0.64036734  0.67174309  0.40079736     0.26400
C3601       C  0.51620879  0.64202217  0.34765950     0.35000
C3602       C  0.51603880  0.64644993  0.37831533     0.35000
C3603       C  0.68013478  0.64691873  0.35018551     0.35000
C3604       C  0.67673405  0.64381877  0.38104049     0.35000
C3605       C  0.60210038  0.69228900  0.30993637    -0.22500
C3606       C  0.64301253  0.69514742  0.31067181    -0.22500
C3607       C  0.60322898  0.69828590  0.41535871    -0.22500
C3608       C  0.64250021  0.69823634  0.41538961    -0.22500
C3609       C  0.47202082  0.62177329  0.35316664    -0.23500
C3610       C  0.47188422  0.62549859  0.37277927    -0.23500
C3611       C  0.69931893  0.62215776  0.35630162    -0.23500
C3612       C  0.69693385  0.62001947  0.37606217    -0.23500
C3613       C  0.53386893  0.65003823  0.32910538    -0.18900
C3614       C  0.67309130  0.65709407  0.33132068    -0.18900
C3615       C  0.66757529  0.65272791  0.39931979    -0.18900
C3616       C  0.53372216  0.65982729  0.39655826    -0.18900
H3617       H  0.58864735  0.70198801  0.29797275     0.14000
H3618       H  0.66703763  0.70815059  0.29925562     0.14000
H3619       H  0.59368662  0.71376525  0.42589826     0.14000
H3620       H  0.66802960  0.71291208  0.42599885     0.14000
H3621       H  0.94550458  0.60585034  0.34404612     0.12300
H3622       H  0.94435710  0.61075126  0.38196254     0.12300
H3623       H  0.71269016  0.60670200  0.34750886     0.12300
H3624       H  0.70832328  0.60289319  0.38557339     0.12300
H3625       H  0.59557587  0.63781417  0.34861950     0.25600
H3626       H  0.58917547  0.63235362  0.38146170     0.25600
N3627       N  0.82880787  0.90907056  0.39830246    -0.37200
N3628       N  0.85296838  0.99767728  0.36418599    -0.57800
N3629       N  0.87370399  0.94550886  0.33655670    -0.37200
N3630       N  0.87797038  0.87934199  0.36038229    -0.57800
C3631       C  0.80911402  0.92915893  0.38930986     0.26400
C3632       C  0.82044810  0.87514135  0.38753148     0.26400
C3633       C  0.88352005  0.98540593  0.32917335     0.26400
C3634       C  0.89321506  0.92912871  0.32537178     0.26400
C3635       C  0.82920130  0.00085248  0.37850606     0.35000
C3636       C  0.83904034  0.00718468  0.34776024     0.35000
C3637       C  0.86280364  0.84714794  0.37397000     0.35000
C3638       C  0.87426002  0.86065836  0.34367792     0.35000
C3639       C  0.78657012  0.90688918  0.37328302    -0.22500
C3640       C  0.79409480  0.87246098  0.37207226    -0.22500
C3641       C  0.91274152  0.99631663  0.31416895    -0.22500
C3642       C  0.91757490  0.96064385  0.31128577    -0.22500
C3643       C  0.80280371  0.01714027  0.37108280    -0.23500
C3644       C  0.80820336  0.02007741  0.35146825    -0.23500
C3645       C  0.85340803  0.80789829  0.36624698    -0.23500
C3646       C  0.85946870  0.81628851  0.34686012    -0.23500
C3647       C  0.81597530  0.97016488  0.39394969    -0.18900
C3648       C  0.84147569  0.85057221  0.38997603    -0.18900
C3649       C  0.88311284  0.88431767  0.32612113    -0.18900
C3650       C  0.85363712  0.00166459  0.33000318    -0.18900
H3651       H  0.76873880  0.91606769  0.36309556     0.14000
H3652       H  0.78346810  0.84933561  0.36069591     0.14000
H3653       H  0.92356899  0.02421141  0.30441053     0.14000
H3654       H  0.93463621  0.95867375  0.29906678     0.14000
H3655       H  0.78052360  0.52035349  0.37956841     0.12300
H3656       H  0.79251141  0.52832849  0.34219229     0.12300
H3657       H  0.83664543  0.77575122  0.37317331     0.12300
H3658       H  0.84864554  0.79141046  0.33643297     0.12300
H3659       H  0.85058660  0.92044656  0.40983503     0.25600
H3660       H  0.84804363  0.92711214  0.34609890     0.25600
N3661       N  0.55800382  0.89674534  0.38991925    -0.37200
N3662       N  0.50128042  0.83483143  0.36202849    -0.57800
N3663       N  0.56383444  0.89503377  0.33479691    -0.37200
N3664       N  0.62001786  0.95774444  0.36192646    -0.57800
C3665       C  0.53522439  0.85743575  0.39931178     0.26400
C3666       C  0.59439636  0.92152275  0.40059345     0.26400
C3667       C  0.52756167  0.87011161  0.32418984     0.26400
C3668       C  0.58952249  0.93192097  0.32428658     0.26400
C3669       C  0.47485660  0.81467372  0.37725274     0.35000
C3670       C  0.48207259  0.81007786  0.34674896     0.35000
C3671       C  0.64242585  0.97972917  0.37740014     0.35000
C3672       C  0.64802394  0.97486978  0.34686121     0.35000
C3673       C  0.55879751  0.85666422  0.41523065    -0.22500
C3674       C  0.59502732  0.89728504  0.41644117    -0.22500
C3675       C  0.52936679  0.89233160  0.30727684    -0.22500
C3676       C  0.56829714  0.93154670  0.30740909    -0.22500
C3677       C  0.43650556  0.77824572  0.37130843    -0.23500
C3678       C  0.44325158  0.77285834  0.35248352    -0.23500
C3679       C  0.68472699  0.01230325  0.37203089    -0.23500
C3680       C  0.68888555  0.00803325  0.35286639    -0.23500
C3681       C  0.49018123  0.82543047  0.39617760    -0.18900
C3682       C  0.62858504  0.96492489  0.39639503    -0.18900
C3683       C  0.63475392  0.96137882  0.32795627    -0.18900
C3684       C  0.49693663  0.82519426  0.32785058    -0.18900
H3685       H  0.54942513  0.83017554  0.42558141     0.14000
H3686       H  0.61957715  0.90729960  0.42762849     0.14000
H3687       H  0.50636447  0.88018485  0.29552270     0.14000
H3688       H  0.58109738  0.95570409  0.29583829     0.14000
H3689       H  0.91262413  0.75821380  0.37809053     0.12300
H3690       H  0.92709241  0.74670418  0.34284642     0.12300
H3691       H  0.71249607  0.53310805  0.38037339     0.12300
H3692       H  0.72060836  0.52563288  0.34386762     0.12300
H3693       H  0.54678972  0.90777319  0.37832201     0.25600
H3694       H  0.57421428  0.88427983  0.34676795     0.25600
C3695       C  0.80617828  0.89638099  0.82484536     0.85900
C3696       C  0.80285366  0.92921065  0.81079219    -0.54300
C3697       C  0.83871267  0.95033243  0.79864096     0.08800
C3698       C  0.87449387  0.93641009  0.80194411     0.19800
C3699       C  0.81272111  0.86550509  0.81186589    -0.55100
C3700       C  0.84750428  0.88643363  0.79933643     0.08900
C3701       C  0.85073857  0.92415604  0.83464224    -0.54600
C3702       C  0.88710322  0.94314167  0.82322560     0.09500
H3703       H  0.77350326  0.93268096  0.80955149     0.14000
H3704       H  0.90361327  0.95397303  0.79234352    -0.00300
H3705       H  0.78852603  0.83079262  0.81108240     0.14300
H3706       H  0.85341416  0.93202897  0.84932161     0.14100
C3707       C  0.64131536  0.69797444  0.82536244     0.85900
C3708       C  0.67792134  0.69727434  0.81327703    -0.54300
C3709       C  0.66234051  0.66145754  0.80179274     0.08800
C3710       C  0.61155402  0.63000873  0.80376783     0.19800
C3711       C  0.60679902  0.69512141  0.81064096    -0.55100
C3712       C  0.59285271  0.66074137  0.79864565     0.08900
C3713       C  0.61964674  0.65370399  0.83593981    -0.54600
C3714       C  0.60186191  0.61792795  0.82498725     0.09500
H3715       H  0.71165345  0.72464769  0.81245209     0.14000
H3716       H  0.59855033  0.60039477  0.79502208    -0.00300
H3717       H  0.59756988  0.72035649  0.80881304     0.14300
H3718       H  0.62196430  0.65078020  0.85095540     0.14100
C3719       C  0.60681230  0.86346805  0.82683496     0.85900
C3720       C  0.57233647  0.82948297  0.81339564    -0.54300
C3721       C  0.55259563  0.84631350  0.80130325     0.08800
C3722       C  0.56983983  0.89593588  0.80396214     0.19800
C3723       C  0.63962089  0.90013539  0.81332962    -0.55100
C3724       C  0.62006817  0.91645509  0.80113032     0.08900
C3725       C  0.58110209  0.88239170  0.83666452    -0.54600
C3726       C  0.56415657  0.90186422  0.82493425     0.09500
H3727       H  0.56727268  0.79656662  0.81240718     0.14000
H3728       H  0.55388244  0.90993637  0.79451787    -0.00300
H3729       H  0.67446806  0.90938494  0.81230391     0.14300
H3730       H  0.57330599  0.87774946  0.85148735     0.14100
O3731       O  0.58499857  0.54456239  0.83394722    -0.82400
C3732       C  0.93681892  0.94483531  0.88214410     0.97000
O3733       O  0.94381905  0.97917711  0.87286394    -0.71500
O3734       O  0.52327480  0.54264206  0.88188634    -0.75100
Al3735     Al  0.99631792  0.52260778  0.85750435     1.49000
C3736       C  0.56498189  0.56434051  0.88375828     0.92200
O3737       O  0.57677145  0.97884415  0.87987046    -0.81300
O3738       O  0.51099992  0.92358499  0.83273963    -0.74900
Al3739     Al  0.57763568  0.50911038  0.85655860     1.90100
O3740       O  0.52429151  0.91427060  0.87113762    -0.73900
O3741       O  0.93771031  0.92859980  0.84068346    -0.73800
O3742       O  0.95820525  0.92580061  0.87833509    -0.79500
O3743       O  0.95982079  0.99791156  0.83414391    -0.77700
O3744       O  0.52024845  0.98709893  0.85634945    -1.13800
O3745       O  0.53998496  0.56740722  0.84370938    -0.73000
C3746       C  0.57323101  0.57347075  0.83386356     0.97700
C3747       C  0.55670627  0.93750951  0.88189116     0.94100
Al3748     Al  0.98529095  0.92788279  0.85530462     1.55600
O3749       O  0.58956260  0.55791332  0.87264426    -0.77600
C3750       C  0.93170669  0.95764781  0.83219216     0.98300
C3751       C  0.55117744  0.93288673  0.83266226     0.93200
O3752       O  0.58002460  0.96540982  0.84184206    -0.82900
C3753       C  0.70878936  0.94713530  0.56443670     0.85900
C3754       C  0.74554701  0.95763264  0.57972851    -0.54300
C3755       C  0.75300402  0.99196867  0.59127576     0.08800
C3756       C  0.72199552  0.51284358  0.58543385     0.19800
C3757       C  0.66812022  0.93915583  0.57587463    -0.55100
C3758       C  0.67597597  0.97161775  0.58785776     0.08900
C3759       C  0.72340430  0.99093505  0.55390197    -0.54600
C3760       C  0.73663113  0.52663081  0.56454010     0.09500
H3761       H  0.76223132  0.93858879  0.58160844     0.14000
H3762       H  0.72491791  0.53997779  0.59396037    -0.00300
H3763       H  0.63749042  0.90781257  0.57652631     0.14300
H3764       H  0.72396890  0.99448880  0.53884790     0.14100
C3765       C  0.54820459  0.74324271  0.56441862     0.85900
C3766       C  0.54426650  0.76304444  0.58298472    -0.54300
C3767       C  0.50939620  0.73370501  0.59456864     0.08800
C3768       C  0.98345296  0.69075353  0.58555224     0.19800
C3769       C  0.55079319  0.70219244  0.57103551    -0.55100
C3770       C  0.51850949  0.67449609  0.58333748     0.08900
C3771       C  0.50247067  0.72660421  0.55561523    -0.54600
C3772       C  0.96850795  0.69803605  0.56550656     0.09500
H3773       H  0.56743406  0.79668086  0.58656357     0.14000
H3774       H  0.95580666  0.66558488  0.59424019    -0.00300
H3775       H  0.58108698  0.70046282  0.56975097     0.14300
H3776       H  0.49743188  0.74469798  0.54412682     0.14100
C3777       C  0.75004817  0.78536963  0.56541674     0.85900
C3778       C  0.72778376  0.75862582  0.58388379    -0.54300
C3779       C  0.75495549  0.74763986  0.59465729     0.08800
C3780       C  0.80178050  0.76626492  0.58578843     0.19800
C3781       C  0.79256702  0.82570312  0.57258679    -0.55100
C3782       C  0.81825343  0.81649454  0.58453755     0.08900
C3783       C  0.76474950  0.75671937  0.55561112    -0.54600
C3784       C  0.79242126  0.74698131  0.56565786     0.09500
H3785       H  0.69532448  0.75224354  0.58840897     0.14000
H3786       H  0.82509141  0.75824303  0.59340514    -0.00300
H3787       H  0.79608722  0.85822892  0.57207538     0.14300
H3788       H  0.74836001  0.73914313  0.54301896     0.14100
O3789       O  0.91718292  0.71473628  0.54991749    -0.82400
C3790       C  0.79073843  0.57945585  0.50773473     0.97000
O3791       O  0.83160274  0.59912312  0.51135247    -0.71500
O3792       O  0.91147852  0.66265593  0.51940422    -0.75100
Al3793     Al  0.85828131  0.62349079  0.53487406     1.49000
C3794       C  0.91934412  0.69629289  0.50918383     0.92200
O3795       O  0.83425850  0.73330446  0.51896437    -0.81300
O3796       O  0.77692552  0.68398059  0.54778929    -0.74900
Al3797     Al  0.87110524  0.71718661  0.53492977     1.90100
O3798       O  0.78391306  0.66838811  0.51006553    -0.73900
O3799       O  0.76369186  0.60235737  0.55589377    -0.73800
O3800       O  0.76488971  0.58733960  0.51736936    -0.79500
O3801       O  0.80732068  0.57558249  0.54935387    -0.77700
O3802       O  0.83552845  0.65922853  0.53484163    -1.13800
O3803       O  0.89137454  0.64559730  0.55828646    -0.73000
C3804       C  0.92227266  0.68533774  0.55868161     0.97700
C3805       C  0.80239850  0.70945434  0.50811290     0.94100
Al3806     Al  0.77724330  0.63754266  0.53305802     1.55600
O3807       O  0.89828776  0.71621171  0.51222691    -0.77600
C3808       C  0.77186584  0.57113117  0.55704151     0.98300
C3809       C  0.80541723  0.71572718  0.55758732     0.93200
O3810       O  0.84552898  0.72437301  0.55780285    -0.82900
N3811       N  0.93283126  0.82247352  0.66678900    -0.37200
N3812       N  0.95396197  0.77715046  0.69782927    -0.57800
N3813       N  0.89754058  0.79165071  0.72116621    -0.37200
N3814       N  0.87113975  0.83163079  0.69110700    -0.57800
C3815       C  0.95153132  0.80264386  0.65728353     0.26400
C3816       C  0.90850531  0.83137294  0.65391030     0.26400
C3817       C  0.90863169  0.76760676  0.73290691     0.26400
C3818       C  0.86165165  0.79083603  0.72864755     0.26400
C3819       C  0.98149689  0.77760092  0.68448682     0.35000
C3820       C  0.96920378  0.77069826  0.71466491     0.35000
C3821       C  0.87265538  0.85752865  0.67617252     0.35000
C3822       C  0.85718323  0.84398087  0.70640299     0.35000
C3823       C  0.94090202  0.80148162  0.63816642    -0.22500
C3824       C  0.91246987  0.81720586  0.63625816    -0.22500
C3825       C  0.87872975  0.74998209  0.74782579    -0.22500
C3826       C  0.84851616  0.76417938  0.74498871    -0.22500
C3827       C  0.51271057  0.76700868  0.69365436    -0.23500
C3828       C  0.50656893  0.76470373  0.71305518    -0.23500
C3829       C  0.85835736  0.88576862  0.68188852    -0.23500
C3830       C  0.84849982  0.87716128  0.70106681    -0.23500
C3831       C  0.97737433  0.78456516  0.66499897    -0.18900
C3832       C  0.88348520  0.85268548  0.65735104    -0.18900
C3833       C  0.85123366  0.82420240  0.72482078    -0.18900
C3834       C  0.95007529  0.76982814  0.73226376    -0.18900
H3835       H  0.95137759  0.78979181  0.62644398     0.14000
H3836       H  0.89570628  0.81626109  0.62315462     0.14000
H3837       H  0.88012242  0.73129303  0.76005421     0.14000
H3838       H  0.82286347  0.75956580  0.75491077     0.14000
H3839       H  0.53958909  0.76619321  0.68638241     0.12300
H3840       H  0.52738721  0.76135271  0.72380874     0.12300
H3841       H  0.85539727  0.90983204  0.67315385     0.12300
H3842       H  0.83465873  0.89201086  0.70986416     0.12300
H3843       H  0.93873965  0.83183062  0.68086181     0.25600
H3844       H  0.91921580  0.81540585  0.71147174     0.25600
N3845       N  0.69768516  0.58159509  0.66972247    -0.37200
N3846       N  0.68034426  0.50792620  0.69302289    -0.57800
N3847       N  0.72238082  0.57276040  0.72249422    -0.37200
N3848       N  0.74318235  0.64734536  0.69935396    -0.57800
C3849       C  0.69080482  0.55027036  0.65734235     0.26400
C3850       C  0.72307127  0.62031478  0.66061495     0.26400
C3851       C  0.71956141  0.53603835  0.73037476     0.26400
C3852       C  0.74716208  0.60605809  0.73421098     0.26400
C3853       C  0.65268366  0.48683493  0.67856449     0.35000
C3854       C  0.66431337  0.48176692  0.70860234     0.35000
C3855       C  0.73511553  0.67093288  0.68612477     0.35000
C3856       C  0.74536775  0.66555972  0.71616727     0.35000
C3857       C  0.71359829  0.56926039  0.64055971    -0.22500
C3858       C  0.73393828  0.61364136  0.64258283    -0.22500
C3859       C  0.74470375  0.54658226  0.74688787    -0.22500
C3860       C  0.76176643  0.59071727  0.74940710    -0.22500
C3861       C  0.62535844  0.94265634  0.68688785    -0.23500
C3862       C  0.63278058  0.94171591  0.70623921    -0.23500
C3863       C  0.73514860  0.70635748  0.69422195    -0.23500
C3864       C  0.74111775  0.70256497  0.71349214    -0.23500
C3865       C  0.65931614  0.50562956  0.66010289    -0.18900
C3866       C  0.72901737  0.66036830  0.66687391    -0.18900
C3867       C  0.74623916  0.64566395  0.73376923    -0.18900
C3868       C  0.68440442  0.49352886  0.72661770    -0.18900
H3869       H  0.71372524  0.55287666  0.62784580     0.14000
H3870       H  0.75254339  0.63812437  0.63163211     0.14000
H3871       H  0.74614347  0.52382883  0.75718995     0.14000
H3872       H  0.77979814  0.60850436  0.76175694     0.14000
H3873       H  0.59954002  0.91661108  0.67878993     0.12300
H3874       H  0.61416599  0.91440688  0.71606176     0.12300
H3875       H  0.72975227  0.73108220  0.68712054     0.12300
H3876       H  0.74070673  0.72338486  0.72436235     0.12300
H3877       H  0.67978531  0.57705819  0.68219209     0.25600
H3878       H  0.70034663  0.57303580  0.71239169     0.25600
N3879       N  0.93190872  0.60820301  0.72013521    -0.37200
N3880       N  0.99833057  0.63411441  0.69123172    -0.57800
N3881       N  0.92365099  0.58527526  0.66613143    -0.37200
N3882       N  0.85759218  0.56081188  0.69583904    -0.57800
C3883       C  0.96863223  0.63901272  0.72875726     0.26400
C3884       C  0.89696684  0.59867500  0.73144381     0.26400
C3885       C  0.95786838  0.61241442  0.65449969     0.26400
C3886       C  0.88572005  0.57372517  0.65627446     0.26400
C3887       C  0.02440979  0.64157859  0.70663295     0.35000
C3888       C  0.02049601  0.63166653  0.67614652     0.35000
C3889       C  0.83726039  0.54268025  0.71260309     0.35000
C3890       C  0.83085296  0.53502134  0.68205262     0.35000
C3891       C  0.95663591  0.65169687  0.74509469    -0.22500
C3892       C  0.91133857  0.62598148  0.74685910    -0.22500
C3893       C  0.94148999  0.61942170  0.63759118    -0.22500
C3894       C  0.89665163  0.59402703  0.63833124    -0.22500
C3895       C  0.56788682  0.64614758  0.70052392    -0.23500
C3896       C  0.56539798  0.64002541  0.68104229    -0.23500
C3897       C  0.80076720  0.00184473  0.70790801    -0.23500
C3898       C  0.79682327  0.99942726  0.68834694    -0.23500
C3899       C  0.01154499  0.64598844  0.72509726    -0.18900
C3900       C  0.85656703  0.55884991  0.73051742    -0.18900
C3901       C  0.84201292  0.54273981  0.66255404    -0.18900
C3902       C  0.00327460  0.62587225  0.65750731    -0.18900
H3903       H  0.97865384  0.67407546  0.75558914     0.14000
H3904       H  0.89206486  0.62574302  0.75882702     0.14000
H3905       H  0.95999705  0.63941478  0.62548122     0.14000
H3906       H  0.87587023  0.59121814  0.62641092     0.14000
H3907       H  0.59617884  0.65369150  0.70951872     0.12300
H3908       H  0.59133660  0.64183029  0.67202057     0.12300
H3909       H  0.77698292  0.97930539  0.71820960     0.12300
H3910       H  0.76931457  0.97439582  0.68050053     0.12300
H3911       H  0.93181199  0.58817584  0.70957006     0.25600
H3912       H  0.92612929  0.57054077  0.67880870     0.25600
C3913       C  0.83482872  0.84358390  0.60222133    -0.06700
C3914       C  0.80458967  0.83504029  0.61713557    -0.17800
C3915       C  0.81899281  0.84322205  0.63607974     0.10500
C3916       C  0.86515233  0.86512383  0.64001975    -0.06600
C3917       C  0.89418018  0.88677006  0.62443125    -0.17900
C3918       C  0.87983467  0.87424827  0.60558821     0.10500
S3919       S  0.77646825  0.82041143  0.65419820    -0.32800
S3920       S  0.92097059  0.89415187  0.58698660    -0.32900
H3921       H  0.89115030  0.88683388  0.57196558     0.28500
H3922       H  0.79424640  0.79771379  0.66432372     0.28500
H3923       H  0.76925477  0.81672988  0.61445808     0.19100
H3924       H  0.92953850  0.90640389  0.62704665     0.19100
C3925       C  0.74535186  0.72779344  0.61444222    -0.06700
C3926       C  0.78171426  0.73953560  0.62689539    -0.17800
C3927       C  0.77626991  0.72162492  0.64521111     0.10500
C3928       C  0.73362768  0.69247753  0.65193373    -0.06600
C3929       C  0.69672592  0.68215036  0.64027295    -0.17900
C3930       C  0.70215054  0.69791633  0.62140372     0.10500
S3931       S  0.82436666  0.73129442  0.65901209    -0.32800
S3932       S  0.65355813  0.67276209  0.60655933    -0.32900
H3933       H  0.67621025  0.66939708  0.59082628     0.28500
H3934       H  0.84819602  0.73022285  0.64321021     0.28500
H3935       H  0.81524079  0.76271703  0.62263619     0.19100
H3936       H  0.66399288  0.65721101  0.64513281     0.19100
C3937       C  0.99383225  0.76494700  0.65123615    -0.06700
C3938       C  0.96053087  0.72723680  0.64267933    -0.17800
C3939       C  0.96258751  0.72189890  0.62325508     0.10500
C3940       C  0.50262811  0.74269239  0.61450149    -0.06600
C3941       C  0.53847707  0.77558725  0.62463697    -0.17900
C3942       C  0.53243874  0.78638310  0.64290887     0.10500
S3943       S  0.90944113  0.69282147  0.61159788    -0.32800
S3944       S  0.57763805  0.83513504  0.65284779    -0.32900
H3945       H  0.55498404  0.83931637  0.66824589     0.28500
H3946       H  0.92267490  0.72121088  0.59549426     0.28500
H3947       H  0.92857873  0.70868061  0.64977276     0.19100
H3948       H  0.57084242  0.79479251  0.61809462     0.19100
C3949       C  0.53299793  0.65811428  0.60042722    -0.06700
C3950       C  0.06036248  0.69338800  0.61470811    -0.17800
C3951       C  0.05846829  0.68141589  0.63402456     0.10500
C3952       C  0.03131796  0.63710153  0.63986465    -0.06600
C3953       C  0.01527804  0.60531935  0.62558131    -0.17900
C3954       C  0.51280657  0.61340799  0.60593365     0.10500
S3955       S  0.08650131  0.72464388  0.65067348    -0.32800
S3956       S  0.47928716  0.57043185  0.58982787    -0.32900
H3957       H  0.49835864  0.59537529  0.57305963     0.28500
H3958       H  0.04783317  0.71422188  0.66095208     0.28500
H3959       H  0.07846464  0.72786546  0.61063120     0.19100
H3960       H  0.99566346  0.57092617  0.62972776     0.19100
C3961       C  0.77938549  0.00496751  0.60922172    -0.06700
C3962       C  0.77517392  0.47036814  0.62205191    -0.17800
C3963       C  0.79440282  0.48063525  0.64022073     0.10500
C3964       C  0.80721084  0.52227604  0.64766550    -0.06600
C3965       C  0.79809753  0.55115836  0.63707146    -0.17900
C3966       C  0.79225296  0.04610167  0.61722085     0.10500
S3967       S  0.80115697  0.43905985  0.65295212    -0.32800
S3968       S  0.80666610  0.09457633  0.60248658    -0.32900
H3969       H  0.81048247  0.12238339  0.61721091     0.28500
H3970       H  0.83571131  0.46692452  0.66494191     0.28500
H3971       H  0.76339730  0.43772107  0.61689250     0.19100
H3972       H  0.80895994  0.58332760  0.64265887     0.19100
C3973       C  0.65213400  0.96059317  0.60644039    -0.06700
C3974       C  0.63013774  0.49177725  0.60906174    -0.17800
C3975       C  0.62284166  0.49722798  0.62808692     0.10500
C3976       C  0.63854633  0.47979604  0.64276619    -0.06600
C3977       C  0.64919599  0.44768519  0.63816944    -0.17900
C3978       C  0.66030842  0.93658333  0.62101203     0.10500
S3979       S  0.60092260  0.53300878  0.63289986    -0.32800
S3980       S  0.67807948  0.89756755  0.61640488    -0.32900
H3981       H  0.64262018  0.87318037  0.60405237     0.28500
H3982       H  0.59063693  0.51943917  0.65208231     0.28500
H3983       H  0.62514880  0.51097049  0.59796435     0.19100
H3984       H  0.67033546  0.93241403  0.65102367     0.19100
C3985       C  0.52639421  0.82326029  0.78414752    -0.06700
C3986       C  0.53444758  0.84835045  0.76719532    -0.17800
C3987       C  0.51068571  0.83023886  0.75062304     0.10500
C3988       C  0.48022174  0.78481248  0.75025554    -0.06600
C3989       C  0.47342647  0.75887548  0.76679562    -0.17900
C3990       C  0.49470678  0.77783579  0.78389501     0.10500
S3991       S  0.51729072  0.86624758  0.73041082    -0.32800
S3992       S  0.47637069  0.74309495  0.80501917    -0.32900
H3993       H  0.48049143  0.77618268  0.81702975     0.28500
H3994       H  0.54686234  0.90613815  0.73888711     0.28500
H3995       H  0.55905248  0.88272596  0.76682536     0.19100
H3996       H  0.94808386  0.72716759  0.76550885     0.19100
C3997       C  0.64087202  0.93971053  0.78318574    -0.06700
C3998       C  0.66033273  0.92183011  0.77161496    -0.17800
C3999       C  0.67351197  0.93766360  0.75298292     0.10500
C4000       C  0.66588801  0.97099785  0.74571934    -0.06600
C4001       C  0.64530710  0.98794241  0.75710572    -0.17900
C4002       C  0.63410547  0.97372291  0.77590420     0.10500
S4003       S  0.70056438  0.91597134  0.73871376    -0.32800
S4004       S  0.61364626  0.00190194  0.79010605    -0.32900
H4005       H  0.63018176  0.99500450  0.80744367     0.28500
H4006       H  0.70227583  0.88759890  0.75282676     0.28500
H4007       H  0.66416607  0.89471943  0.77703158     0.19100
H4008       H  0.64099216  0.01481616  0.75166319     0.19100
C4009       C  0.57313012  0.65904288  0.77950174    -0.06700
C4010       C  0.54216538  0.61750715  0.77299010    -0.17800
C4011       C  0.52754306  0.61151290  0.75419125     0.10500
C4012       C  0.54151018  0.64819010  0.74158926    -0.06600
C4013       C  0.57262221  0.68981794  0.74787146    -0.17900
C4014       C  0.58969417  0.69551833  0.76640812     0.10500
S4015       S  0.48929337  0.55614464  0.74733431    -0.32800
S4016       S  0.63377387  0.74969171  0.77185363    -0.32900
H4017       H  0.66182557  0.73485787  0.77942265     0.28500
H4018       H  0.99343150  0.56385298  0.72939078     0.28500
H4019       H  0.53003241  0.58906062  0.78253393     0.19100
H4020       H  0.58300540  0.71813365  0.73837832     0.19100
C4021       C  0.68706617  0.65957638  0.78484629    -0.06700
C4022       C  0.66306061  0.64525124  0.76784975    -0.17800
C4023       C  0.68196861  0.64129756  0.75128730     0.10500
C4024       C  0.72758864  0.65465021  0.75090675    -0.06600
C4025       C  0.75258698  0.66997457  0.76767087    -0.17900
C4026       C  0.73258088  0.67148144  0.78474010     0.10500
S4027       S  0.64620386  0.61639133  0.73104148    -0.32800
S4028       S  0.76591620  0.68526850  0.80596678    -0.32900
H4029       H  0.73066661  0.65802752  0.81831590     0.28500
H4030       H  0.60523347  0.60080959  0.74037803     0.28500
H4031       H  0.62868134  0.63626265  0.76730927     0.19100
H4032       H  0.78727548  0.67878132  0.76769374     0.19100
C4033       C  0.83861559  0.97516870  0.78099784    -0.06700
C4034       C  0.85005038  0.96397268  0.76384857    -0.17800
C4035       C  0.85448330  0.98734248  0.74691851     0.10500
C4036       C  0.84592653  0.02268532  0.74650303    -0.06600
C4037       C  0.83189766  0.03256555  0.76340369    -0.17900
C4038       C  0.82865001  0.00965161  0.78062591     0.10500
S4039       S  0.87469783  0.97213210  0.72672387    -0.32800
S4040       S  0.81547598  0.02856835  0.80174945    -0.32900
H4041       H  0.84436113  0.02159652  0.81369681     0.28500
H4042       H  0.90851320  0.01471487  0.72215558     0.28500
H4043       H  0.85768052  0.93785510  0.76358079     0.19100
H4044       H  0.82609234  0.56529113  0.76532362     0.19100
C4045       C  0.84850687  0.84621303  0.74211978    -0.06700
C4046       C  0.88831031  0.86898309  0.75242924    -0.17800
C4047       C  0.88847611  0.87832976  0.77160660     0.10500
C4048       C  0.84811657  0.86742184  0.78073321    -0.06600
C4049       C  0.80824448  0.84559535  0.77028568    -0.17900
C4050       C  0.80795760  0.83460578  0.75124277     0.10500
S4051       S  0.94115723  0.90199819  0.78382864    -0.32800
S4052       S  0.75471547  0.80501375  0.73972390    -0.32900
H4053       H  0.77038714  0.81041208  0.72100683     0.28500
H4054       H  0.92329719  0.88617419  0.80208541     0.28500
H4055       H  0.91944941  0.87629573  0.74584172     0.19100
H4056       H  0.77703228  0.83813733  0.77679652     0.19100
C4057       C  0.96948667  0.60918217  0.27564127    -0.06700
C4058       C  0.96054243  0.63658306  0.28681374    -0.17800
C4059       C  0.48013424  0.64978267  0.30394501     0.10500
C4060       C  0.50610963  0.63265253  0.31181980    -0.06600
C4061       C  0.01745376  0.60795914  0.30075003    -0.17900
C4062       C  0.99992114  0.59639509  0.28248572     0.10500
S4063       S  0.47256285  0.69073902  0.31546610    -0.32800
S4064       S  0.02100074  0.56998062  0.26741236    -0.32900
H4065       H  0.04509463  0.56129170  0.28145045     0.28500
H4066       H  0.51466501  0.71232453  0.32403131     0.28500
H4067       H  0.43906970  0.64795017  0.28059147     0.19100
H4068       H  0.04053673  0.59779660  0.30602930     0.19100
C4069       C  0.84935198  0.51607631  0.27226170    -0.06700
C4070       C  0.85322574  0.55046842  0.28337412    -0.17800
C4071       C  0.84840112  0.54571969  0.30318050     0.10500
C4072       C  0.83487906  0.00545918  0.31115229    -0.06600
C4073       C  0.82078560  0.96895454  0.29933733    -0.17900
C4074       C  0.83165024  0.97479971  0.27993606     0.10500
S4075       S  0.86103499  0.59418802  0.31595639    -0.32800
S4076       S  0.82545457  0.92811536  0.26736416    -0.32900
H4077       H  0.82806222  0.94556521  0.24888304     0.28500
H4078       H  0.87790601  0.58431670  0.33227747     0.28500
H4079       H  0.86491142  0.58267074  0.27685352     0.19100
H4080       H  0.80951060  0.93675889  0.30586229     0.19100
C4081       C  0.48259020  0.79719585  0.31053861    -0.06700
C4082       C  0.51735642  0.80245594  0.29843638    -0.17800
C4083       C  0.01489395  0.80643973  0.27643689     0.10500
C4084       C  0.97145752  0.78920915  0.26953552    -0.06600
C4085       C  0.93610838  0.76963514  0.28249443    -0.17900
C4086       C  0.94319893  0.77893958  0.30171719     0.10500
S4087       S  0.06257691  0.83032459  0.26090903    -0.32800
S4088       S  0.39082068  0.76888734  0.31497489    -0.32900
H4089       H  0.41409493  0.80897355  0.32415075     0.28500
H4090       H  0.03964899  0.80726936  0.24473344     0.28500
H4091       H  0.55059688  0.81570134  0.30409311     0.19100
H4092       H  0.90229610  0.75387915  0.27726282     0.19100
C4093       C  0.89179614  0.83678146  0.27153629    -0.06700
C4094       C  0.85186602  0.81333129  0.28190141    -0.17800
C4095       C  0.84664809  0.82893377  0.29938812     0.10500
C4096       C  0.88453459  0.86363176  0.30815937    -0.06600
C4097       C  0.92473264  0.88347440  0.29829415    -0.17900
C4098       C  0.92515138  0.87668676  0.27902340     0.10500
S4099       S  0.79155137  0.80313064  0.30952325    -0.32800
S4100       S  0.95862923  0.92458228  0.26390255    -0.32900
H4101       H  0.98688439  0.95150857  0.27819881     0.28500
H4102       H  0.79787589  0.83890453  0.32020400     0.28500
H4103       H  0.82450613  0.78378547  0.27631984     0.19100
H4104       H  0.95407928  0.90949376  0.30481419     0.19100
C4105       C  0.69336808  0.51089563  0.27278071    -0.06700
C4106       C  0.66959720  0.96467156  0.27728793    -0.17800
C4107       C  0.65992895  0.94867548  0.29615713     0.10500
C4108       C  0.66542373  0.97784925  0.31089256    -0.06600
C4109       C  0.69451913  0.52272013  0.30662648    -0.17900
C4110       C  0.71190304  0.53871060  0.28842516     0.10500
S4111       S  0.63802786  0.89075775  0.30050470    -0.32800
S4112       S  0.75822828  0.59374082  0.28622532    -0.32900
H4113       H  0.77707211  0.58546342  0.27045266     0.28500
H4114       H  0.64836681  0.89419146  0.32000189     0.28500
H4115       H  0.65771646  0.94198325  0.26571912     0.19100
H4116       H  0.70114774  0.54611509  0.31752996     0.19100
C4117       C  0.68304179  0.63868032  0.31465016    -0.06700
C4118       C  0.71201860  0.66800281  0.30075491    -0.17800
C4119       C  0.70729176  0.65675174  0.28159759     0.10500
C4120       C  0.67892992  0.61240888  0.27647195    -0.06600
C4121       C  0.65127754  0.58282812  0.29090275    -0.17900
C4122       C  0.65228269  0.59560254  0.30957180     0.10500
S4123       S  0.73149034  0.70242809  0.26477426    -0.32800
S4124       S  0.61251147  0.55689600  0.32668912    -0.32900
H4125       H  0.58530114  0.52472813  0.31375340     0.28500
H4126       H  0.69794089  0.68178405  0.25109771     0.28500
H4127       H  0.73347180  0.70197122  0.30437998     0.19100
H4128       H  0.62879861  0.54899946  0.28816282     0.19100
C4129       C  0.81521070  0.00325539  0.45283070    -0.06700
C4130       C  0.80196220  0.96019451  0.44823955    -0.17800
C4131       C  0.79697720  0.94788717  0.42938446     0.10500
C4132       C  0.81620535  0.98085482  0.41449053    -0.06600
C4133       C  0.83651463  0.02505527  0.41963796    -0.17900
C4134       C  0.83466428  0.03653467  0.43838819     0.10500
S4135       S  0.75857203  0.88985791  0.42644837    -0.32800
S4136       S  0.85164561  0.59151284  0.44164031    -0.32900
H4137       H  0.88531235  0.59753157  0.45451809     0.28500
H4138       H  0.73782988  0.89419798  0.40998222     0.28500
H4139       H  0.78694807  0.93463192  0.45922804     0.19100
H4140       H  0.85141790  0.05093562  0.40882744     0.19100
C4141       C  0.70179874  0.00685901  0.44852039    -0.06700
C4142       C  0.71768584  0.99405790  0.43310920    -0.17800
C4143       C  0.69593704  0.98273762  0.41582004     0.10500
C4144       C  0.65879494  0.98785425  0.41257137    -0.06600
C4145       C  0.64443972  0.00456438  0.42722665    -0.17900
C4146       C  0.66542002  0.01387668  0.44526491     0.10500
S4147       S  0.71299353  0.95508003  0.39966759    -0.32800
S4148       S  0.64226718  0.52831092  0.46282642    -0.32900
H4149       H  0.61077558  0.53274006  0.45160148     0.28500
H4150       H  0.67087483  0.91891086  0.39648779     0.28500
H4151       H  0.74524855  0.98871188  0.43480150     0.19100
H4152       H  0.61590516  0.50597545  0.42339470     0.19100
C4153       C  0.70603350  0.67706948  0.45450563    -0.06700
C4154       C  0.73935825  0.68256446  0.44161467    -0.17800
C4155       C  0.72880887  0.66803332  0.42298881     0.10500
C4156       C  0.68373681  0.64344363  0.41776896    -0.06600
C4157       C  0.65186675  0.62590634  0.43264051    -0.17900
C4158       C  0.66200047  0.64471418  0.45064518     0.10500
S4159       S  0.77424458  0.68475823  0.40659716    -0.32800
S4160       S  0.61685652  0.62989202  0.46700681    -0.32900
H4161       H  0.64252252  0.64019118  0.48364805     0.28500
H4162       H  0.75776263  0.70225780  0.39266061     0.28500
H4163       H  0.77401455  0.70182885  0.44539035     0.19100
H4164       H  0.61719228  0.60461295  0.42914353     0.19100
C4165       C  0.83021931  0.82270642  0.40748312    -0.06700
C4166       C  0.86242792  0.83430981  0.42178644    -0.17800
C4167       C  0.85032622  0.81965126  0.44077732     0.10500
C4168       C  0.80488621  0.79167657  0.44561533    -0.06600
C4169       C  0.77337418  0.78010058  0.43097610    -0.17900
C4170       C  0.78528205  0.79406812  0.41220185     0.10500
S4171       S  0.89390894  0.84244009  0.45820372    -0.32800
S4172       S  0.74081799  0.77568967  0.39503581    -0.32900
H4173       H  0.76649059  0.77765361  0.37939273     0.28500
H4174       H  0.86729824  0.84522311  0.47239516     0.28500
H4175       H  0.89679040  0.85786257  0.41845254     0.19100
H4176       H  0.73864497  0.75881514  0.43386619     0.19100
C4177       C  0.46331818  0.80509902  0.41422836    -0.06700
C4178       C  0.47136962  0.83580751  0.42855797    -0.17800
C4179       C  0.48021884  0.82773753  0.44736687     0.10500
C4180       C  0.47139052  0.78536385  0.45277644    -0.06600
C4181       C  0.44731101  0.75152287  0.44003106    -0.17900
C4182       C  0.44665224  0.76076347  0.42055164     0.10500
S4183       S  0.50800492  0.87371026  0.46278546    -0.32800
S4184       S  0.92848861  0.71638117  0.40522125    -0.32900
H4185       H  0.46275239  0.73478223  0.39265539     0.28500
H4186       H  0.49492462  0.84936815  0.48002586     0.28500
H4187       H  0.48128188  0.86938765  0.42434462     0.19100
H4188       H  0.93473910  0.72097583  0.44418400     0.19100
C4189       C  0.49807203  0.69312371  0.44812260    -0.06700
C4190       C  0.51583901  0.72351884  0.43271221    -0.17800
C4191       C  0.52074895  0.71152368  0.41466440     0.10500
C4192       C  0.50945680  0.66787397  0.41157250    -0.06600
C4193       C  0.49091137  0.63670893  0.42659428    -0.17900
C4194       C  0.98807692  0.64979938  0.44517921     0.10500
S4195       S  0.54990558  0.75520703  0.39710850    -0.32800
S4196       S  0.97531233  0.61209406  0.46525338    -0.32900
H4197       H  0.96182043  0.57420364  0.45467636     0.28500
H4198       H  0.52956711  0.72940913  0.38123845     0.28500
H4199       H  0.52644643  0.75762540  0.43440170     0.19100
H4200       H  0.98886882  0.60416717  0.42551313     0.19100
C4201       C  0.02622963  0.64979782  0.12302180    -0.06700
C4202       C  0.02756450  0.61913668  0.11095946    -0.17800
C4203       C  0.03601868  0.62835570  0.09146098     0.10500
C4204       C  0.04696806  0.67027580  0.08405507    -0.06600
C4205       C  0.55527525  0.70467182  0.09779632    -0.17900
C4206       C  0.04332291  0.69330814  0.11618278     0.10500
S4207       S  0.02481818  0.58342719  0.07650185    -0.32800
S4208       S  0.54089243  0.73418963  0.13135827    -0.32900
H4209       H  0.54104030  0.71431614  0.14899389     0.28500
H4210       H  0.99212055  0.58687123  0.06577462     0.28500
H4211       H  0.01586349  0.58583159  0.11615543     0.19100
H4212       H  0.56326539  0.73712373  0.09254322     0.19100
C4213       C  0.84344284  0.83843850  0.07538637    -0.06700
C4214       C  0.88752467  0.86529426  0.08094576    -0.17800
C4215       C  0.89818682  0.87377766  0.10030197     0.10500
C4216       C  0.86459557  0.85056871  0.11434605    -0.06600
C4217       C  0.82025150  0.83101450  0.10850728    -0.17900
C4218       C  0.80962378  0.82815477  0.08908925     0.10500
S4219       S  0.95427278  0.91407599  0.10656720    -0.32800
S4220       S  0.75180184  0.80355375  0.08261380    -0.32900
H4221       H  0.75993101  0.81525905  0.06316752     0.28500
H4222       H  0.97294094  0.92055176  0.08831107     0.28500
H4223       H  0.91371299  0.87636159  0.07043358     0.19100
H4224       H  0.79385560  0.81580849  0.11897998     0.19100
C4225       C  0.94161321  0.80468068  0.11116923    -0.06700
C4226       C  0.97923290  0.83268800  0.10004311    -0.17800
C4227       C  0.48711481  0.82093374  0.08224327     0.10500
C4228       C  0.94952427  0.78315790  0.07340863    -0.06600
C4229       C  0.91014274  0.75898456  0.08371853    -0.17900
C4230       C  0.90968701  0.76454389  0.10323905     0.10500
S4231       S  0.54108845  0.85306215  0.07124234    -0.32800
S4232       S  0.87665015  0.71580379  0.11802110    -0.32900
H4233       H  0.84947775  0.68870044  0.10352290     0.28500
H4234       H  0.53877296  0.82101297  0.05914414     0.28500
H4235       H  0.50822290  0.86195093  0.10667861     0.19100
H4236       H  0.88362205  0.72966275  0.07750284     0.19100
C4237       C  0.67469748  0.60005399  0.11146308    -0.06700
C4238       C  0.69161625  0.58601458  0.09675127    -0.17800
C4239       C  0.69395040  0.60038284  0.07801658     0.10500
C4240       C  0.68241919  0.63260051  0.07366465    -0.06600
C4241       C  0.66440470  0.64646613  0.08787610    -0.17900
C4242       C  0.66136125  0.63136222  0.10679899     0.10500
S4243       S  0.71832345  0.58241340  0.06018388    -0.32800
S4244       S  0.64747481  0.65886123  0.12436232    -0.32900
H4245       H  0.67645782  0.65774322  0.13827071     0.28500
H4246       H  0.72813603  0.55546441  0.07210526     0.28500
H4247       H  0.70255239  0.56267578  0.09947083     0.19100
H4248       H  0.65808605  0.67326007  0.08466540     0.19100
C4249       C  0.90824588  0.55813599  0.11185369    -0.06700
C4250       C  0.91895735  0.53264423  0.10031424    -0.17800
C4251       C  0.90055909  0.52057724  0.08215564     0.10500
C4252       C  0.87291131  0.53635274  0.07497656    -0.06600
C4253       C  0.86500451  0.56451014  0.08586209    -0.17900
C4254       C  0.88001453  0.57337799  0.10450372     0.10500
S4255       S  0.91113541  0.98690331  0.06824384    -0.32800
S4256       S  0.85612160  0.59832183  0.11869048    -0.32900
H4257       H  0.84955935  0.57065902  0.13464989     0.28500
H4258       H  0.93364045  0.97727294  0.08268166     0.28500
H4259       H  0.94091813  0.52122716  0.10568104     0.19100
H4260       H  0.84200967  0.57489549  0.08063533     0.19100
C4261       C  0.65287464  0.44685676  0.08257635    -0.06700
C4262       C  0.63925705  0.47826287  0.08384329    -0.17800
C4263       C  0.62881855  0.48787463  0.10142560     0.10500
C4264       C  0.64584228  0.47742875  0.11786145    -0.06600
C4265       C  0.65075321  0.44018662  0.11707680    -0.17900
C4266       C  0.64856833  0.42152143  0.09935675     0.10500
S4267       S  0.59070117  0.50877910  0.10180172    -0.32800
S4268       S  0.64320890  0.36770763  0.09882787    -0.32900
H4269       H  0.63733089  0.36348561  0.07903651     0.28500
H4270       H  0.57061421  0.48783311  0.11912238     0.28500
H4271       H  0.63822331  0.49694721  0.07159982     0.19100
H4272       H  0.65610230  0.42585913  0.12998207     0.19100
C4273       C  0.67699410  0.64518451  0.93631330    -0.06700
C4274       C  0.66612318  0.60690563  0.94734297    -0.17800
C4275       C  0.68275296  0.60895537  0.96585904     0.10500
C4276       C  0.71279076  0.65006728  0.97339592    -0.06600
C4277       C  0.72491420  0.68804521  0.96211758    -0.17900
C4278       C  0.70771714  0.68629268  0.94385337     0.10500
S4279       S  0.66134980  0.55832538  0.97947485    -0.32800
S4280       S  0.72535098  0.73732569  0.93058111    -0.32900
H4281       H  0.74755778  0.76591971  0.94548862     0.28500
H4282       H  0.69609293  0.57234490  0.99269653     0.28500
H4283       H  0.64237753  0.57510599  0.94202382     0.19100
H4284       H  0.74711213  0.71966837  0.96800584     0.19100
C4285       C  0.56277149  0.63876301  0.94493016    -0.06700
C4286       C  0.57412887  0.68088968  0.95067510    -0.17800
C4287       C  0.56861884  0.68885048  0.96933396     0.10500
C4288       C  0.54628521  0.65336458  0.98239462    -0.06600
C4289       C  0.53448122  0.61099107  0.97693191    -0.17900
C4290       C  0.54392837  0.60340696  0.95857425     0.10500
S4291       S  0.58820742  0.74502501  0.97529444    -0.32800
S4292       S  0.53119193  0.54817682  0.95399888    -0.32900
H4293       H  0.56992987  0.56065817  0.94353198     0.28500
H4294       H  0.59339306  0.73928459  0.99482746     0.28500
H4295       H  0.58821798  0.70840641  0.94059215     0.19100
H4296       H  0.51670039  0.58357493  0.98685472     0.19100
C4297       C  0.87545756  0.84355546  0.93723366    -0.06700
C4298       C  0.90565771  0.87025073  0.95108113    -0.17800
C4299       C  0.90590281  0.85332120  0.96949833     0.10500
C4300       C  0.87307551  0.80950732  0.97446303    -0.06600
C4301       C  0.84679821  0.78275777  0.95937297    -0.17900
C4302       C  0.85070307  0.79869706  0.94078034     0.10500
S4303       S  0.94847276  0.88810328  0.98586884    -0.32800
S4304       S  0.82602085  0.76046195  0.92187448    -0.32900
H4305       H  0.85395831  0.78853819  0.90729629     0.28500
H4306       H  0.96386206  0.92765970  0.97529440     0.28500
H4307       H  0.92755929  0.90468504  0.94765763     0.19100
H4308       H  0.82209942  0.74892422  0.96164506     0.19100
C4309       C  0.85914446  0.94660492  0.94308763    -0.06700
C4310       C  0.87029192  0.99106943  0.94341212    -0.17800
C4311       C  0.86738630  0.00984268  0.96027671     0.10500
C4312       C  0.85881955  0.98565090  0.97757939    -0.06600
C4313       C  0.85658894  0.94503753  0.97772238    -0.17900
C4314       C  0.84898530  0.92267286  0.96083687     0.10500
S4315       S  0.86639373  0.56306647  0.95913928    -0.32800
S4316       S  0.81503439  0.86375684  0.96341788    -0.32900
H4317       H  0.79725741  0.86160869  0.98154048     0.28500
H4318       H  0.87272513  0.57151081  0.97864263     0.28500
H4319       H  0.87749195  0.01016317  0.93023370     0.19100
H4320       H  0.84909705  0.92678051  0.99113236     0.19100
C4321       C  0.53106378  0.82825641  0.93782946    -0.06700
C4322       C  0.55472444  0.83364979  0.95498724    -0.17800
C4323       C  0.53374541  0.81323969  0.97218293     0.10500
C4324       C  0.48747107  0.78461824  0.97264810    -0.09000
C4325       C  0.46356867  0.77754634  0.95552697    -0.17900
C4326       C  0.48472718  0.79821239  0.93822741     0.10500
S4327       S  0.56697175  0.82357535  0.99352640    -0.32800
S4328       S  0.45130252  0.78079114  0.91705351    -0.32900
H4329       H  0.48601752  0.78583254  0.90520901     0.28500
H4330       H  0.60896693  0.84945543  0.98503530     0.28500
H4331       H  0.58996780  0.85566499  0.95548352     0.19100
H4332       H  0.42851740  0.75391881  0.95525887     0.19100
C4333       C  0.63516091  0.94830660  0.94233902    -0.06700
C4334       C  0.67994465  0.97667186  0.94581536    -0.17800
C4335       C  0.69433177  0.98839378  0.96438072     0.10500
C4336       C  0.66472999  0.96482056  0.97974668    -0.06600
C4337       C  0.61912620  0.94163477  0.97595328    -0.17900
C4338       C  0.60420456  0.93771712  0.95718993     0.10500
S4339       S  0.74968981  0.53310762  0.96835713    -0.32800
S4340       S  0.54682535  0.92125462  0.95246239    -0.32900
H4341       H  0.53185349  0.90633512  0.97110902     0.28500
H4342       H  0.74266988  0.53949992  0.98734275     0.28500
H4343       H  0.70357345  0.98938582  0.93416139     0.19100
H4344       H  0.59533580  0.92456344  0.98719648     0.19100
loop_ 
_geom_bond_atom_site_label_1 
_geom_bond_atom_site_label_2 
_geom_bond_distance 
_geom_bond_site_symmetry_2 
_ccdc_geom_bond_type 
C1            C2   1.559       .  S
C1            C7   1.527       .  S
C1            C5   1.522       .  S
C1          C489   1.524       .  S
C2            H9   1.083       .  S
C2            C3   1.388       .  D
C3            C4   1.545       .  S
C3         C1063   1.522       .  S
C4            C8   1.545       .  S
C4            C6   1.563       .  S
C4           H10   1.108       .  S
C5           H11   1.087       .  S
C5            C6   1.357       .  D
C6         C1075   1.474       .  S
C7           H12   1.074       .  S
C7            C8   1.354       .  D
C8           C57   1.501       .  S
C13          C14   1.543       .  S
C13          C19   1.515       .  S
C13          C17   1.527       .  S
C13         C474   1.509       .  S
C14          H21   1.086       .  S
C14          C15   1.382       .  D
C15          C16   1.548       .  S
C15        C1051   1.504       .  S
C16          C20   1.555       .  S
C16          C18   1.562       .  S
C16          H22   1.103       .  S
C17          H23   1.088       .  S
C17          C18   1.353       .  D
C18        C1039   1.478       .  S
C19          H24   1.065       .  S
C19          C20   1.349       .  D
C20          C52   1.501       .  S
C25          C26   1.558       .  S
C25          C31   1.525       .  S
C25          C29   1.535       .  S
C25         C478   1.523       .  S
C26          H33   1.086       .  S
C26          C27   1.380       .  D
C27          C28   1.529       .  S
C27        C1015   1.505       .  S
C28          C32   1.532       .  S
C28          C30   1.545       .  S
C28          H34   1.097       .  S
C29          H35   1.084       .  S
C29          C30   1.373       .  D
C30        C1027   1.486       .  S
C31          H36   1.076       .  S
C31          C32   1.353       .  D
C32          C56   1.486       .  S
O37          C52   1.277       .  A
O37         Al45   1.975       .  S
C38         C449   1.530       .  S
C38          O48   1.274       .  A
C38          O39   1.262       .  A
O39         Al41   1.917       .  S
O40          C42   1.274       .  A
O40         Al41   1.958       .  S
Al41         O49   1.948       .  S
Al41         O51   1.921       .  S
Al41         O50   1.783       .  S
C42         C437   1.524       .  S
C42          O55   1.260       .  A
O43          C53   1.275       .  A
O43         Al45   1.968       .  S
O44          C57   1.275       .  A
O44         Al54   1.972       .  S
Al45         O58   1.922       .  S
Al45         O55   1.909       .  S
Al45         O50   1.783       .  S
O46          C53   1.261       .  A
O46         Al54   1.905       .  S
O47          C56   1.264       .  A
O47         Al54   1.916       .  S
O48         Al54   1.964       .  S
O49          C56   1.271       .  A
O50         Al54   1.781       .  S
O51          C52   1.260       .  A
C53         C461   1.525       .  S
C57          O58   1.263       .  A
N59          C64   1.348   1_554  A
N59          C63   1.342   1_554  A
N59          H91   1.043       .  S
N60          C67   1.350       .  A
N60          C68   1.346       .  A
N61          C66   1.355       .  A
N61          C65   1.364       .  A
N61        H1178   1.038       .  S
N62          C69   1.346       .  A
N62          C70   1.337       .  A
C63          C71   1.385       .  A
C63          C79   1.396       .  A
C64          C80   1.411       .  A
C64          C72   1.390       .  A
C65          C73   1.395       .  A
C65          C82   1.438       .  A
C66          C81   1.418   1_565  A
C66          C74   1.379       .  A
C67          C79   1.408   1_554  A
C67          C75   1.382       .  A
C68          C76   1.392       .  A
C68        C1168   1.426       .  A
C69          C77   1.383       .  A
C69          C80   1.401   1_554  A
C70          C78   1.389       .  A
C70        C1167   1.401       .  A
C71          C72   1.369       .  A
C71          H83   1.083       .  S
C72          H84   1.079       .  S
C73          C74   1.360       .  A
C73          H85   1.072       .  S
C74          H86   1.083       .  S
C75          C76   1.380       .  A
C75          H87   1.079       .  S
C76          H88   1.079       .  S
C77          C78   1.383       .  A
C77          H89   1.083       .  S
C78          H90   1.082       .  S
C79        C1078   1.489       .  S
C80        C1054   1.477       .  S
C81        C1156   1.402       .  A
C81         C994   1.475       .  S
C82        C1154   1.426       .  A
C82        C1003   1.507       .  S
H92        N1147   1.037       .  S
C93          C94   1.549       .  S
C93          C99   1.513       .  S
C93          C97   1.532   1_545  S
C93         C318   1.511       .  S
C94         H101   1.084       .  S
C94          C95   1.385       .  D
C95          C96   1.540       .  S
C95         C979   1.498       .  S
C96         C100   1.546       .  S
C96          C98   1.573       .  S
C96         H102   1.108       .  S
C97        H1189   1.087       .  S
C97          C98   1.351   1_565  D
C98        C1006   1.497   1_545  S
C99         H104   1.060       .  S
C99         C100   1.347       .  D
C100        C148   1.498       .  S
H103       C1183   1.087       .  S
C105        C106   1.561       .  S
C105        C111   1.521       .  S
C105        C109   1.541       .  S
C105        C314   1.535       .  S
C106        H113   1.084       .  S
C106        C107   1.398       .  D
C107        C108   1.544       .  S
C107        C967   1.499       .  S
C108        C112   1.551       .  S
C108        C110   1.543       .  S
C108        H114   1.100       .  S
C109        H115   1.087       .  S
C109        C110   1.352       .  D
C110        C958   1.508       .  S
C111        H116   1.074       .  S
C111        C112   1.357       .  D
C112        C144   1.518       .  S
C117        C118   1.536       .  S
C117        C123   1.522       .  S
C117        C121   1.545       .  S
C117        C329   1.528       .  S
C118        H125   1.085       .  S
C118        C119   1.383       .  D
C119        C120   1.550       .  S
C119        C991   1.484       .  S
C120        C124   1.552       .  S
C120        C122   1.544       .  S
C120        H126   1.108       .  S
C121        H127   1.087       .  S
C121        C122   1.357       .  D
C122        C943   1.496       .  S
C123        H128   1.076       .  S
C123        C124   1.362       .  D
C124        C149   1.504       .  S
O129        C144   1.279       .  A
O129       Al137   1.978       .  S
C130        C277   1.515       .  S
C130        O140   1.270       .  A
C130        O131   1.258       .  A
O131       Al133   1.903       .  S
O132        C134   1.269       .  A
O132       Al133   1.971       .  S
Al133       O141   1.968       .  S
Al133       O143   1.933       .  S
Al133       O142   1.792       .  S
C134        C289   1.530       .  S
C134        O147   1.263       .  A
O135        C145   1.271       .  A
O135       Al137   1.986       .  S
O136        C149   1.271       .  A
O136       Al146   1.941       .  S
Al137       O150   1.942       .  S
Al137       O147   1.883       .  S
Al137       O142   1.772       .  S
O138        C145   1.260       .  A
O138       Al146   1.886       .  S
O139        C148   1.261       .  A
O139       Al146   1.914       .  S
O140       Al146   1.947       .  S
O141        C148   1.279       .  A
O142       Al146   1.774       .  S
O143        C144   1.267       .  A
C145        C301   1.536       .  S
C149        O150   1.270       .  A
N151        C156   1.351   1_554  A
N151        C155   1.347   1_554  A
N151        H183   1.042   1_655  S
N152        C159   1.339       .  A
N152        C160   1.346       .  A
N153        C158   1.348       .  A
N153        C157   1.351       .  A
N153       H2356   1.043       .  S
N154        C161   1.351       .  A
N154        C162   1.351       .  A
C155        C163   1.388       .  A
C155        C171   1.411   1_655  A
C156        C172   1.406       .  A
C156        C164   1.385       .  A
C157        C165   1.376       .  A
C157        C174   1.403       .  A
C158        C173   1.418       .  A
C158        C166   1.395       .  A
C159        C171   1.406   1_554  A
C159        C167   1.386       .  A
C160        C168   1.384       .  A
C160       C2346   1.404       .  A
C161        C169   1.383       .  A
C161        C172   1.421   1_554  A
C162        C170   1.385       .  A
C162       C2345   1.415       .  A
C163        C164   1.375       .  A
C163        H175   1.082       .  S
C164        H176   1.081       .  S
C165        C166   1.361       .  A
C165        H177   1.081       .  S
C166        H178   1.071       .  S
C167        C168   1.391       .  A
C167        H179   1.080       .  S
C168       H2352   1.082       .  S
C169        C170   1.388       .  A
C169        H181   1.076       .  S
C170        H182   1.082       .  S
C171       C1030   1.472       .  S
C172       C1066   1.502       .  S
C173       C2334   1.410       .  A
C173        C970   1.485       .  S
C174       C2332   1.403       .  A
C174        C946   1.496       .  S
H180       C2340   1.082       .  S
H184       N2325   1.043   1_455  S
N185        C190   1.344   1_554  A
N185        C189   1.346   1_554  A
N185        H217   1.045       .  S
N186        C193   1.344       .  A
N186        C194   1.336       .  A
N187        C192   1.349       .  A
N187        C191   1.348       .  A
N187        H218   1.044       .  S
N188        C195   1.351       .  A
N188        C196   1.352       .  A
C189        C197   1.380       .  A
C189        C205   1.405       .  A
C190        C206   1.413       .  A
C190        C198   1.393       .  A
C191        C199   1.392       .  A
C191        C208   1.413       .  A
C192        C207   1.402       .  A
C192        C200   1.382       .  A
C193        C205   1.410   1_554  A
C193        C201   1.386       .  A
C194        C208   1.402       .  A
C194        C202   1.385       .  A
C195        C203   1.392       .  A
C195        C206   1.433   1_554  A
C196        C204   1.381       .  A
C196        C207   1.414       .  A
C197        C198   1.385       .  A
C197        H209   1.082       .  S
C198        H210   1.076       .  S
C199        C200   1.366       .  A
C199        H211   1.081       .  S
C200        H212   1.080       .  S
C201        C202   1.392       .  A
C201        H213   1.081       .  S
C202        H214   1.082       .  S
C203        C204   1.394       .  A
C203        H215   1.078   1_554  S
C204        H216   1.082       .  S
C205       C1018   1.496       .  S
C206       C1042   1.522       .  S
C207        C955   1.504       .  S
C208        C982   1.467       .  S
C219        C220   1.543       .  S
C219        C225   1.516       .  S
C219        C223   1.545       .  S
C219        C536   1.529       .  S
C220        H227   1.088       .  S
C220       C2393   1.355       .  D
C221        C222   1.555   1_655  S
C221       C2392   1.354       .  D
C221        C922   1.499       .  S
C222        C226   1.551       .  S
C222        C224   1.558   1_455  S
C222        H228   1.109       .  S
C223        H229   1.082       .  S
C223       C2396   1.389       .  D
C224       C2395   1.387       .  D
C224        C931   1.503       .  S
C225        H230   1.068       .  S
C225       C2398   1.352       .  D
C226       C2397   1.353       .  D
C226        C274   1.499       .  S
C231        C232   1.540       .  S
C231        C237   1.523       .  S
C231        C235   1.544       .  S
C231        C547   1.523       .  S
C232        H239   1.088       .  S
C232        C233   1.348       .  D
C233        C234   1.555       .  S
C233        C895   1.496       .  S
C234        C238   1.557       .  S
C234        C236   1.559       .  S
C234        H240   1.109       .  S
C235        H241   1.084       .  S
C235        C236   1.387       .  D
C236        C910   1.508       .  S
C237        H242   1.073       .  S
C237        C238   1.357       .  D
C238        C275   1.505       .  S
C243        C244   1.539       .  S
C243        C249   1.525   1_545  S
C243        C247   1.553       .  S
C243        C532   1.521       .  S
C244        H251   1.083       .  S
C244       C1331   1.366       .  D
C245        C246   1.555       .  S
C245       C1330   1.371       .  D
C245        C871   1.489       .  S
C246        C250   1.531       .  S
C246        C248   1.541       .  S
C246        H252   1.110       .  S
C247        H253   1.085       .  S
C247       C1334   1.377       .  D
C248       C1333   1.376       .  D
C248        C883   1.508       .  S
C249        H254   1.075       .  S
C249       C1336   1.352       .  D
C250       C1335   1.352       .  D
C250        C270   1.491       .  S
O255        C270   1.267       .  A
O255       Al263   1.925       .  S
C256        C507   1.526       .  S
C256        O266   1.259       .  A
C256        O257   1.268       .  A
O257       Al259   1.958       .  S
O258        C260   1.262       .  A
O258       Al259   1.901       .  S
Al259       O267   1.933       .  S
Al259       O269   1.947       .  S
Al259       O268   1.783       .  S
C260        C495   1.531       .  S
C260        O273   1.268       .  A
O261        C271   1.264       .  A
O261       Al263   1.905       .  S
O262        C275   1.265       .  A
O262       Al272   1.931       .  S
Al263       O276   1.966       .  S
Al263       O273   1.965       .  S
Al263       O268   1.788       .  S
O264        C271   1.270       .  A
O264       Al272   1.947       .  S
O265        C274   1.269       .  A
O265       Al272   1.945       .  S
O266       Al272   1.880       .  S
O267        C274   1.266       .  A
O268       Al272   1.782       .  S
O269        C270   1.271       .  A
C271        C519   1.527       .  S
C275        O276   1.273       .  A
C277        C278   1.539       .  S
C277        C283   1.513       .  S
C277        C281   1.538       .  S
C278        H285   1.077       .  S
C278        C279   1.388       .  D
C279        C280   1.565       .  S
C279        C862   1.521       .  S
C280        C284   1.546       .  S
C280        C282   1.553       .  S
C280        H286   1.104       .  S
C281        H287   1.086       .  S
C281        C282   1.364       .  D
C282        C847   1.494       .  S
C283        H288   1.074       .  S
C283        C284   1.345       .  D
C284        C328   1.491       .  S
C289        C290   1.542       .  S
C289        C295   1.517       .  S
C289        C293   1.562       .  S
C290        H297   1.088       .  S
C290        C291   1.345       .  D
C291        C292   1.532       .  S
C291        C826   1.488       .  S
C292        C296   1.530       .  S
C292        C294   1.547       .  S
C292        H298   1.101       .  S
C293        H299   1.084       .  S
C293        C294   1.400       .  D
C294        C835   1.501       .  S
C295        H300   1.075       .  S
C295        C296   1.353       .  D
C296        C332   1.481       .  S
C301        C302   1.544       .  S
C301        C307   1.530       .  S
C301        C305   1.539       .  S
C302        H309   1.087       .  S
C302        C303   1.358       .  D
C303        C304   1.547       .  S
C303        C811   1.496       .  S
C304        C308   1.559       .  S
C304        C306   1.557       .  S
C304        H310   1.109       .  S
C305        H311   1.086       .  S
C305        C306   1.381       .  D
C306        C799   1.491       .  S
C307        H312   1.069       .  S
C307        C308   1.363       .  D
C308        C333   1.518       .  S
O313        C328   1.264       .  A
O313       Al321   1.931       .  S
C314        O324   1.266       .  A
C314       O2487   1.263       .  A
O315       C2486   1.264       .  A
O315       Al317   1.958   1_655  S
O316       C1404   1.255       .  A
O316       Al317   1.856       .  S
Al317       O325   1.883       .  S
Al317       O327   1.939       .  S
Al317       O326   1.786       .  S
C318        O331   1.272       .  A
C318       O1402   1.255   1_545  A
O319       C2501   1.261   1_455  A
O319       Al321   1.887       .  S
O320       C1419   1.273       .  A
O320       Al330   1.957       .  S
Al321       O334   1.948   1_455  S
Al321       O331   1.964       .  S
Al321      O1412   1.781   1_545  S
O322       C1415   1.270       .  A
O322       Al330   1.960       .  S
O323        C332   1.279       .  A
O323       Al330   1.969       .  S
O324       Al330   1.922       .  S
O325       C2504   1.258   1_455  A
O326      Al1407   1.781       .  S
O326      Al2502   1.774   1_455  S
O327       C1414   1.267       .  A
C328       O1413   1.267   1_545  A
C329       O2491   1.261       .  A
C329       O1408   1.270       .  A
Al330      O2498   1.774       .  S
C332       O2497   1.258       .  A
C333       O1406   1.273   1_545  A
C333       O2506   1.270       .  A
O334       C2505   1.270       .  A
N335        C340   1.349       .  A
N335        C339   1.349       .  A
N335        H367   1.043       .  S
N336        C343   1.344       .  A
N336        C344   1.343       .  A
N337        C342   1.347       .  A
N337        C341   1.349       .  A
N337        H368   1.043       .  S
N338        C345   1.345       .  A
N338        C346   1.348       .  A
C339        C347   1.383       .  A
C339        C355   1.407       .  A
C340        C356   1.412       .  A
C340        C348   1.391       .  A
C341        C349   1.388       .  A
C341        C358   1.409       .  A
C342        C357   1.409       .  A
C342        C350   1.386       .  A
C343        C355   1.411       .  A
C343        C351   1.385   1_455  A
C344        C358   1.406       .  A
C344        C352   1.385   1_455  A
C345        C353   1.388       .  A
C345        C356   1.415       .  A
C346        C354   1.385       .  A
C346        C357   1.412       .  A
C347        C348   1.373       .  A
C347        H359   1.083       .  S
C348        H360   1.080       .  S
C349        C350   1.364       .  A
C349        H361   1.081       .  S
C350        H362   1.077       .  S
C351        C352   1.390       .  A
C351       H2535   1.077       .  S
C352       H2536   1.082       .  S
C353        C354   1.392       .  A
C353        H365   1.082       .  S
C354        H366   1.081       .  S
C355        C802   1.491       .  S
C356        C859   1.487       .  S
C357        C898   1.500       .  S
C358        C934   1.478       .  S
H363       C2523   1.077       .  S
H364       C2524   1.082       .  S
N369        C374   1.335       .  A
N369        C373   1.342       .  A
N369        H401   1.046       .  S
N370        C377   1.353       .  A
N370        C378   1.342       .  A
N371        C376   1.358       .  A
N371        C375   1.357       .  A
N371        H402   1.038       .  S
N372        C379   1.354       .  A
N372        C380   1.338       .  A
C373        C381   1.387       .  A
C373        C389   1.387       .  A
C374        C390   1.383       .  A
C374        C382   1.386       .  A
C375        C383   1.381       .  A
C375        C392   1.417       .  A
C376        C391   1.434       .  A
C376        C384   1.396       .  A
C377        C389   1.416       .  A
C377        C385   1.387       .  A
C378        C392   1.410       .  A
C378        C386   1.384       .  A
C379        C387   1.377       .  A
C379        C390   1.397       .  A
C380        C388   1.390       .  A
C380        C391   1.418       .  A
C381        C382   1.363       .  A
C381        H393   1.083       .  S
C382        H394   1.083       .  S
C383        C384   1.364       .  A
C383        H395   1.083       .  S
C384        H396   1.075       .  S
C385        C386   1.390       .  A
C385       H1483   1.079       .  S
C386       H1484   1.081       .  S
C387        C388   1.382       .  A
C387        H399   1.083       .  S
C388        H400   1.071       .  S
C389        C874   1.506       .  S
C390        C907   1.481       .  S
C391        C838   1.491       .  S
C392        C814   1.501       .  S
H397       C1471   1.079       .  S
H398       C1472   1.080       .  S
N403        C408   1.356       .  A
N403        C407   1.358       .  A
N403        H435   1.044       .  S
N404        C411   1.351   1_455  A
N404        C412   1.350   1_455  A
N405        C410   1.354       .  A
N405        C409   1.352       .  A
N405        H436   1.044       .  S
N406        C413   1.348       .  A
N406        C414   1.355       .  A
C407        C415   1.385       .  A
C407        C423   1.419   1_455  A
C408        C424   1.416       .  A
C408        C416   1.388       .  A
C409        C417   1.388       .  A
C409        C426   1.415   1_455  A
C410        C425   1.410       .  A
C410        C418   1.385       .  A
C411        C423   1.420       .  A
C411        C419   1.382       .  A
C412        C426   1.422       .  A
C412        C420   1.384       .  A
C413        C421   1.387       .  A
C413        C424   1.418       .  A
C414        C422   1.385       .  A
C414        C425   1.419       .  A
C415        C416   1.358       .  A
C415        H427   1.080       .  S
C416        H428   1.082       .  S
C417        C418   1.368       .  A
C417        H429   1.081       .  S
C418        H430   1.083       .  S
C419        C420   1.384       .  A
C419       H2603   1.077       .  S
C420       H2604   1.077       .  S
C421        C422   1.379       .  A
C421       H1519   1.082       .  S
C422       H1520   1.077       .  S
C423        C919   1.522       .  S
C424        C886   1.492       .  S
C425        C850   1.514       .  S
C426        C823   1.510       .  S
H431       C2591   1.077       .  S
H432       C2592   1.076       .  S
H433       C1507   1.082       .  S
H434       C1508   1.077       .  S
C437        C438   1.542       .  S
C437        C443   1.523       .  S
C437        C441   1.539       .  S
C438        H445   1.085       .  S
C438        C439   1.377       .  D
C439        C440   1.559       .  S
C439        C775   1.498       .  S
C440        C444   1.548       .  S
C440        C442   1.541       .  S
C440        H446   1.108       .  S
C441        H447   1.087       .  S
C441        C442   1.370       .  D
C442        C790   1.491       .  S
C443        H448   1.068       .  S
C443        C444   1.353       .  D
C444        C492   1.500       .  S
C449        C450   1.549       .  S
C449        C455   1.527       .  S
C449        C453   1.538       .  S
C450        H457   1.084       .  S
C450        C451   1.382       .  D
C451        C452   1.550       .  S
C451        C763   1.501       .  S
C452        C456   1.527       .  S
C452        C454   1.538       .  S
C452        H458   1.110       .  S
C453        H459   1.086       .  S
C453        C454   1.369       .  D
C454        C751   1.485       .  S
C455        H460   1.066       .  S
C455        C456   1.356       .  D
C456        C488   1.491       .  S
C461        C462   1.544       .  S
C461        C467   1.532       .  S
C461        C465   1.532       .  S
C462        H469   1.085       .  S
C462        C463   1.378       .  D
C463        C464   1.554       .  S
C463        C727   1.500       .  S
C464        C468   1.528       .  S
C464        C466   1.531       .  S
C464        H470   1.110       .  S
C465        H471   1.087       .  S
C465        C466   1.365       .  D
C466        C739   1.465       .  S
C467        H472   1.069       .  S
C467        C468   1.359       .  D
C468        C493   1.489       .  S
O473        C488   1.268       .  A
O473       Al481   1.925       .  S
C474        O484   1.254       .  A
C474        O475   1.268       .  A
O475      Al1563   1.955       .  S
O476        C478   1.263       .  A
O476      Al2649   1.923   1_455  S
Al477      O1561   1.951   1_545  S
Al477      O2648   1.908       .  S
Al477      O1571   1.933       .  S
Al477      O2659   1.945       .  S
Al477      O3744   1.790   1_545  S
C478        O491   1.266       .  A
O479        C489   1.265       .  A
O479      Al1567   1.914       .  S
O480        C493   1.263       .  A
O480      Al2662   1.911   1_455  S
Al481       O491   1.938       .  S
Al481      O1565   1.899   1_545  S
Al481      O1580   1.949   1_545  S
Al481      O1572   1.780   1_545  S
O482        C489   1.265       .  A
O482      Al2662   1.946   1_455  S
O483        C492   1.272       .  A
O483       Al490   1.952       .  S
O484       Al490   1.862       .  S
O485        C492   1.265       .  A
O485      Al1563   1.934       .  S
O486      Al3735   1.792   1_455  S
O486      Al1567   1.780       .  S
O486      Al2662   1.780   1_455  S
O487        C488   1.272       .  A
O487      Al2649   1.943   1_455  S
Al490      O2652   1.908       .  S
Al490      O2654   1.956       .  S
Al490      O2658   1.780       .  S
C493        O494   1.272       .  A
O494      Al1567   1.948       .  S
C495        C496   1.565       .  S
C495        C501   1.528       .  S
C495        C499   1.527       .  S
C496        H503   1.084       .  S
C496        C497   1.392       .  D
C497       C1584   1.526       .  S
C497        C703   1.499       .  S
C498        C502   1.547       .  S
C498       C1583   1.529   1_545  S
C498       C1586   1.555   1_545  S
C498        H504   1.103       .  S
C499        H505   1.086       .  S
C499        C500   1.352       .  D
C500       C1584   1.557       .  S
C500        C715   1.493       .  S
C501        H506   1.062       .  S
C501       C1588   1.356       .  D
C502       C1587   1.353   1_545  D
C502        C550   1.511       .  S
C507        C508   1.538       .  S
C507        C513   1.520       .  S
C507        C511   1.545       .  S
C508        H515   1.085       .  S
C508        C509   1.386       .  D
C509       C2682   1.550   1_455  S
C509        C682   1.489       .  S
C510        C514   1.554       .  S
C510       C2681   1.552       .  S
C510       C2684   1.545       .  S
C510        H516   1.102       .  S
C511        H517   1.087       .  S
C511        C512   1.356       .  D
C512       C2682   1.547   1_455  S
C512        C691   1.503       .  S
C513        H518   1.078   1_455  S
C513       C2686   1.361   1_455  D
C514       C2685   1.360       .  D
C514        C546   1.508       .  S
C519        C520   1.544       .  S
C519        C525   1.522       .  S
C519        C523   1.544       .  S
C520        H527   1.083       .  S
C520        C521   1.388       .  D
C521        C522   1.550       .  S
C521        C667   1.495       .  S
C522        C526   1.544       .  S
C522        C524   1.557       .  S
C522        H528   1.107       .  S
C523        H529   1.087       .  S
C523        C524   1.362       .  D
C524        C655   1.510       .  S
C525        H530   1.078       .  S
C525        C526   1.353       .  D
C526        C551   1.501       .  S
O531        C546   1.271       .  A
O531       Al539   1.934       .  S
C532        O542   1.269       .  A
C532        O533   1.255       .  A
O533       Al535   1.890       .  S
O534        C536   1.273       .  A
O534       Al535   1.978       .  S
Al535       O543   1.994       .  S
Al535       O545   1.942       .  S
Al535       O544   1.785       .  S
C536        O549   1.261       .  A
O537        C547   1.265       .  A
O537       Al539   1.962       .  S
O538        C551   1.275       .  A
O538       Al548   1.955       .  S
Al539       O552   1.930       .  S
Al539       O549   1.877       .  S
Al539       O544   1.782       .  S
O540        C547   1.260       .  A
O540       Al548   1.876       .  S
O541        C550   1.262       .  A
O541       Al548   1.912       .  S
O542       Al548   1.963       .  S
O543        C550   1.284       .  A
O544       Al548   1.774       .  S
O545        C546   1.269       .  A
C551        O552   1.268       .  A
N553        C558   1.363       .  A
N553        C557   1.356       .  A
N553        H585   1.038       .  S
N554        C561   1.344       .  A
N554        C562   1.351       .  A
N555        C560   1.345       .  A
N555        C559   1.350       .  A
N555        H586   1.038       .  S
N556        C563   1.353       .  A
N556        C564   1.352       .  A
C557        C565   1.388       .  A
C557        C573   1.426       .  A
C558        C574   1.424       .  A
C558        C566   1.384       .  A
C559        C567   1.383       .  A
C559        C576   1.404       .  A
C560        C575   1.409       .  A
C560        C568   1.389       .  A
C561        C573   1.406       .  A
C561       C2741   1.388       .  A
C562        C576   1.409       .  A
C562       C2742   1.384       .  A
C563        C571   1.383       .  A
C563        C574   1.417       .  A
C564        C572   1.384       .  A
C564        C575   1.418       .  A
C565        C566   1.351       .  A
C565        H577   1.074       .  S
C566        H578   1.077       .  S
C567        C568   1.375       .  A
C567        H579   1.081       .  S
C568        H580   1.082       .  S
C569        C570   1.378       .  A
C569       C2733   1.388   1_455  A
C569        H581   1.082       .  S
C570       C2734   1.383   1_455  A
C570        H582   1.083       .  S
C571        C572   1.383       .  A
C571        H583   1.078       .  S
C572        H584   1.079       .  S
C573        C679   1.478       .  S
C574        C658   1.519       .  S
C575        C787   1.486       .  S
C576       C2902   1.491       .  S
N587        C592   1.344       .  A
N587        C591   1.349       .  A
N587        H619   1.043       .  S
N588        C595   1.348   1_545  A
N588        C596   1.343   1_545  A
N589        C594   1.353       .  A
N589        C593   1.347       .  A
N589        H620   1.039       .  S
N590        C597   1.343       .  A
N590        C598   1.345       .  A
C591        C599   1.385       .  A
C591        C607   1.403   1_545  A
C592        C608   1.402       .  A
C592        C600   1.389       .  A
C593        C601   1.386       .  A
C593        C610   1.411   1_545  A
C594        C609   1.409       .  A
C594        C602   1.383       .  A
C595        C607   1.404       .  A
C595       C1689   1.382       .  A
C596        C610   1.408       .  A
C596       C1690   1.388       .  A
C597        C605   1.384       .  A
C597        C608   1.400       .  A
C598        C606   1.388       .  A
C598        C609   1.410       .  A
C599        C600   1.367       .  A
C599        H611   1.080       .  S
C600        H612   1.082       .  S
C601        C602   1.374       .  A
C601        H613   1.081       .  S
C602        H614   1.081       .  S
C603        C604   1.383       .  A
C603       C1681   1.382       .  A
C603        H615   1.080       .  S
C604       C1682   1.388       .  A
C604        H616   1.081       .  S
C605        C606   1.381       .  A
C605        H617   1.082       .  S
C606        H618   1.081       .  S
C607        C718   1.488       .  S
C608        C670   1.464       .  S
C609        C766   1.487       .  S
C610       C1828   1.473       .  S
N621        C626   1.350       .  A
N621        C625   1.347       .  A
N621        H653   1.039       .  S
N622        C629   1.346       .  A
N622        C630   1.348       .  A
N623        C628   1.356       .  A
N623        C627   1.355       .  A
N623        H654   1.043       .  S
N624        C631   1.349       .  A
N624        C632   1.348       .  A
C625        C633   1.387       .  A
C625        C641   1.410       .  A
C626        C642   1.408       .  A
C626        C634   1.386       .  A
C627        C635   1.379       .  A
C627        C644   1.414       .  A
C628        C643   1.417       .  A
C628        C636   1.389       .  A
C629        C641   1.414       .  A
C629       C2809   1.388       .  A
C630        C644   1.411       .  A
C630       C2810   1.386       .  A
C631        C642   1.416       .  A
C631       C1725   1.383       .  A
C632        C643   1.409       .  A
C632       C1726   1.385       .  A
C633        C634   1.372       .  A
C633        H645   1.083       .  S
C634        H646   1.079       .  S
C635        C636   1.355       .  A
C635        H647   1.076       .  S
C636        H648   1.074       .  S
C637        C638   1.391       .  A
C637       C2801   1.388       .  A
C637        H649   1.081       .  S
C638       C2802   1.386       .  A
C638        H650   1.082       .  S
C639        C640   1.384       .  A
C639       C1717   1.385       .  A
C639        H651   1.080       .  S
C640       C1718   1.386       .  A
C640        H652   1.082       .  S
C641       C2926   1.482       .  S
C642       C1864   1.497       .  S
C643        C706   1.490       .  S
C644        C694   1.501       .  S
C655        C656   1.409       .  A
C655        C660   1.409       .  A
C656        C657   1.406       .  A
C656        H665   1.082       .  S
C657        C658   1.417       .  A
C657        S661   1.803       .  S
C658        C659   1.418       .  A
C659        C660   1.413       .  A
C659        H666   1.084       .  S
C660        S662   1.801       .  S
S661        H664   1.402       .  S
S662        H663   1.406       .  S
C667        C668   1.412       .  A
C667        C672   1.418       .  A
C668        C669   1.385       .  A
C668        H677   1.076       .  S
C669        C670   1.395       .  A
C669        S673   1.806       .  S
C670        C671   1.404       .  A
C671        C672   1.400       .  A
C671        H678   1.084       .  S
C672        S674   1.802       .  S
S673        H676   1.407       .  S
S674        H675   1.407       .  S
C679        C680   1.401       .  A
C679       C2856   1.409       .  A
C680        C681   1.393       .  A
C680        H689   1.085       .  S
C681       C2854   1.416       .  A
C681        S685   1.806       .  S
C682        C683   1.409       .  A
C682       C2853   1.415   1_455  A
C683        C684   1.398       .  A
C683        H690   1.081       .  S
C684       C2851   1.410   1_455  A
C684        S686   1.803       .  S
S685        H688   1.407       .  S
S686        H687   1.399       .  S
C691        C696   1.408       .  A
C691       C2864   1.410       .  A
C692        C693   1.402       .  A
C692       C2863   1.410       .  A
C692        H701   1.082       .  S
C693        C694   1.411       .  A
C693        S697   1.799       .  S
C694        C695   1.416       .  A
C695       C2868   1.410       .  A
C695        H702   1.084       .  S
C696       C2867   1.409       .  A
C696        S698   1.800   1_455  S
S697        H700   1.407       .  S
S698        H699   1.407   1_655  S
C703        C708   1.420       .  A
C703       C1790   1.405       .  A
C704        C705   1.406       .  A
C704       C1789   1.407   1_565  A
C704        H713   1.082       .  S
C705        C706   1.416   1_565  A
C705        S709   1.801       .  S
C706        C707   1.397       .  A
C707       C1794   1.396       .  A
C707        H714   1.084       .  S
C708       C1793   1.397       .  A
C708        S710   1.814       .  S
S709        H712   1.404       .  S
S710        H711   1.406       .  S
C715        C720   1.422       .  A
C715       C1802   1.399       .  A
C716        C717   1.402       .  A
C716       C1801   1.400       .  A
C716        H725   1.083       .  S
C717        C718   1.418       .  A
C717        S721   1.803   1_565  S
C718        C719   1.396       .  A
C719       C1806   1.397       .  A
C719       H1812   1.084       .  S
C720       C1805   1.398       .  A
C720        S722   1.799       .  S
S721        H724   1.408       .  S
S722        H723   1.405       .  S
H726       C1805   1.084       .  S
C727        C728   1.405       .  A
C727        C732   1.420   1_455  A
C728        C729   1.396       .  A
C728        H737   1.078       .  S
C729        C730   1.412   1_455  A
C729        S733   1.811       .  S
C730        C731   1.405       .  A
C730       C2748   1.491       .  S
C731        C732   1.409       .  A
C731       H2910   1.084       .  S
C732        S734   1.802       .  S
S733        H736   1.407       .  S
S734        H735   1.407       .  S
H738       C2903   1.083       .  S
C739        C740   1.407       .  A
C739        C744   1.406       .  A
C740        C741   1.398       .  A
C740        H749   1.083       .  S
C741        C742   1.403       .  A
C741        S745   1.804       .  S
C742        C743   1.407       .  A
C742       C1696   1.474       .  S
C743        C744   1.389       .  A
C743        H750   1.084       .  S
C744        S746   1.806       .  S
S745        H748   1.407       .  S
S746        H747   1.406       .  S
C751        C752   1.400       .  A
C751        C756   1.423       .  A
C752        C753   1.392       .  A
C752        H761   1.084       .  S
C753        C754   1.415       .  A
C753        S757   1.804   1_455  S
C754        C755   1.399       .  A
C754       C2813   1.482       .  S
C755        C756   1.407       .  A
C755        H762   1.083       .  S
C756        S758   1.809       .  S
S757       H2932   1.406       .  S
S758        H759   1.407       .  S
H760       S2929   1.405       .  S
C763        C764   1.406       .  A
C763        C768   1.418       .  A
C764        C765   1.388       .  A
C764        H773   1.071       .  S
C765        C766   1.408       .  A
C765        S769   1.815       .  S
C766        C767   1.406       .  A
C767        C768   1.409       .  A
C767        H774   1.082       .  S
C768        S770   1.801       .  S
S769        H772   1.406       .  S
S770        H771   1.407       .  S
C775        C776   1.402       .  A
C775        C780   1.417       .  A
C776        C777   1.391       .  A
C776        H785   1.074       .  S
C777        C778   1.412       .  A
C777        S781   1.801       .  S
C778        C779   1.408       .  A
C778       C1728   1.496       .  S
C779        C780   1.409       .  A
C779       H1872   1.081       .  S
C780        S782   1.802       .  S
S781        H784   1.399       .  S
S782        H783   1.406       .  S
H786       C1865   1.081       .  S
C787        C788   1.407       .  A
C787        C792   1.409       .  A
C788        C789   1.397       .  A
C788        H797   1.085       .  S
C789        C790   1.413       .  A
C789        S793   1.806       .  S
C790        C791   1.412       .  A
C791        C792   1.402       .  A
C791        H798   1.083       .  S
C792        S794   1.804       .  S
S793        H796   1.406       .  S
S794        H795   1.403       .  S
C799        C800   1.411       .  A
C799        C804   1.410       .  A
C800       C2973   1.405       .  A
C800       H2981   1.083       .  S
C801        C802   1.410   1_655  A
C801       C2972   1.405       .  A
C801        S805   1.803       .  S
C802       C2975   1.407       .  A
C803        C804   1.398       .  A
C803       C2974   1.408       .  A
C803        H810   1.083       .  S
C804        S806   1.810       .  S
S805        H808   1.405   1_655  S
S806        H807   1.407       .  S
H809       C2972   1.083       .  S
C811        C812   1.409       .  A
C811       C1902   1.405   1_545  A
C812        C813   1.400       .  A
C812        H821   1.082       .  S
C813       C1900   1.412       .  A
C813        S817   1.798       .  S
C814        C815   1.416       .  A
C814       C1899   1.412       .  A
C815        C816   1.405       .  A
C815        H822   1.084       .  S
C816       C1897   1.407       .  A
C816        S818   1.804       .  S
S817        H820   1.395       .  S
S818        H819   1.404       .  S
C823        C824   1.418   1_655  A
C823       C3000   1.417       .  A
C824       C2997   1.404       .  A
C824        H833   1.081       .  S
C825        C826   1.403       .  A
C825       C2996   1.405       .  A
C825        S829   1.802       .  S
C826        C827   1.400       .  A
C827        C828   1.391       .  A
C827        H834   1.083       .  S
C828       C2995   1.416       .  A
C828       S3002   1.778       .  S
S829        H832   1.405       .  S
S830       C3000   1.779       .  S
S830        H831   1.402       .  S
C835        C836   1.407       .  A
C835        C840   1.417       .  A
C836        C837   1.410       .  A
C836        H845   1.081       .  S
C837        C838   1.422       .  A
C837        S841   1.804       .  S
C838        C839   1.394       .  A
C839        C840   1.388       .  A
C839        H846   1.083       .  S
C840        S842   1.815       .  S
S841        H844   1.404       .  S
S842        H843   1.407       .  S
C847        C852   1.416       .  A
C847       C1934   1.396   1_545  A
C848        C849   1.403       .  A
C848       C1933   1.396       .  A
C848        H857   1.083       .  S
C849        C850   1.425       .  A
C849        S853   1.800       .  S
C850       C1937   1.405       .  A
C851        C852   1.400       .  A
C851       C1936   1.402   1_545  A
C851        H858   1.078       .  S
C852        S854   1.800       .  S
S853        H856   1.407       .  S
S854        H855   1.405       .  S
C859        C860   1.400       .  A
C859        C864   1.406       .  A
C860        C861   1.403       .  A
C860        H869   1.083       .  S
C861        C862   1.427       .  A
C861        S865   1.802       .  S
C862        C863   1.415       .  A
C863        C864   1.399       .  A
C863        H870   1.072       .  S
C864        S866   1.810       .  S
S865        H868   1.407       .  S
S866        H867   1.406       .  S
C871        C872   1.394       .  A
C871        C876   1.419       .  A
C872        C873   1.391       .  A
C872        H881   1.085       .  S
C873        C874   1.436       .  A
C873        S877   1.814       .  S
C874        C875   1.408       .  A
C875        C876   1.405       .  A
C875        H882   1.083       .  S
C876       S1964   1.799       .  S
S877        H880   1.401       .  S
S878       C1962   1.797       .  S
S878        H879   1.400       .  S
C883        C884   1.406       .  A
C883        C888   1.415       .  A
C884        C885   1.385       .  A
C884        H893   1.067       .  S
C885        C886   1.401       .  A
C885        S889   1.802       .  S
C886        C887   1.412       .  A
C887        C888   1.418       .  A
C887       H1980   1.082       .  S
C888       S1976   1.804       .  S
S889        H892   1.401       .  S
S890       C1974   1.804       .  S
S890        H891   1.407       .  S
H894       C1973   1.083       .  S
C895        C896   1.411       .  A
C895        C900   1.406       .  A
C896        C897   1.400       .  A
C896        H905   1.081       .  S
C897        C898   1.411       .  A
C897        S901   1.802       .  S
C898        C899   1.418       .  A
C899        C900   1.405       .  A
C899        H906   1.084       .  S
C900        S902   1.803       .  S
S901        H904   1.399       .  S
S902        H903   1.405       .  S
C907        C908   1.405       .  A
C907        C912   1.410       .  A
C908        C909   1.411       .  A
C908        H917   1.084       .  S
C909        C910   1.419       .  A
C909        S913   1.799       .  S
C910        C911   1.405       .  A
C911        C912   1.389       .  A
C911        H918   1.073       .  S
C912        S914   1.806       .  S
S913        H916   1.407       .  S
S914        H915   1.404       .  S
C919        C920   1.423       .  A
C919        C924   1.425       .  A
C920        C921   1.409       .  A
C920        H929   1.084       .  S
C921        C922   1.405       .  A
C921        S925   1.803   1_655  S
C922        C923   1.404       .  A
C923        C924   1.401       .  A
C923       H3102   1.081       .  S
C924       S3098   1.799       .  S
S925        H928   1.405   1_455  S
S926       C3096   1.800       .  S
S926       H3099   1.395       .  S
H927       S3098   1.396       .  S
H930       C3095   1.082       .  S
C931        C932   1.407   1_655  A
C931       C3108   1.417       .  A
C932        C933   1.388       .  A
C932        H941   1.075       .  S
C933        C934   1.405       .  A
C933        S937   1.809       .  S
C934        C935   1.407   1_455  A
C935       C3108   1.412       .  A
C935       H3114   1.083       .  S
C936       C3103   1.417       .  A
C936       C3107   1.411       .  A
C936        S938   1.805       .  S
S937        H940   1.405       .  S
S938        H939   1.407       .  S
H942       C3107   1.083       .  S
C943        C944   1.411       .  A
C943        C948   1.406       .  A
C944        C945   1.401       .  A
C944        H953   1.083       .  S
C945        C946   1.410       .  A
C945        S949   1.799       .  S
C946       C3119   1.415       .  A
C947       C3118   1.415       .  A
C947       C3120   1.404       .  A
C947        H954   1.084       .  S
C948       C3119   1.404       .  A
C948       S3122   1.801       .  S
S949        H952   1.405       .  S
S950       C3120   1.802       .  S
S950        H951   1.406       .  S
C955        C956   1.400       .  A
C955        C960   1.423       .  A
C956        C957   1.411       .  A
C956        H965   1.083       .  S
C957        C958   1.425       .  A
C957        S961   1.805       .  S
C958        C959   1.398       .  A
C959        C960   1.404       .  A
C959        H966   1.083       .  S
C960        S962   1.803       .  S
S961        H964   1.407       .  S
S962        H963   1.408       .  S
C967        C968   1.409       .  A
C967        C972   1.415       .  A
C968       C3141   1.408       .  A
C968       H3149   1.082       .  S
C969       C3140   1.411       .  A
C969       C3142   1.420       .  A
C969        S973   1.802   1_655  S
C970        C971   1.394       .  A
C970       C3141   1.418       .  A
C971        C972   1.392       .  A
C971        H978   1.084       .  S
C972        S974   1.816       .  S
S973        H976   1.404       .  S
S974        H975   1.407       .  S
H977       C3140   1.082   1_455  S
C979        C980   1.412       .  A
C979        C984   1.416       .  A
C980        C981   1.387       .  A
C980        H989   1.073       .  S
C981        C982   1.400       .  A
C981        S985   1.815       .  S
C982        C983   1.407       .  A
C983        C984   1.404       .  A
C983        H990   1.084       .  S
C984        S986   1.802       .  S
S985        H988   1.407       .  S
S986        H987   1.408       .  S
C991        C992   1.409       .  A
C991        C996   1.415       .  A
C992        C993   1.400       .  A
C992       H1001   1.081       .  S
C993        C994   1.405       .  A
C993       S2083   1.806   1_545  S
C994        C995   1.400       .  A
C995        C996   1.390       .  A
C995       H1002   1.085       .  S
C996        S998   1.802       .  S
S997       C2079   1.805       .  S
S997       H1000   1.405       .  S
S998        H999   1.406       .  S
C1003      C1004   1.404       .  A
C1003      C1008   1.419       .  A
C1004      C1005   1.391       .  A
C1004      H1013   1.078       .  S
C1005      C1006   1.412       .  A
C1005      S1009   1.804   1_565  S
C1006      C1007   1.404       .  A
C1007      C1008   1.411       .  A
C1007      H1014   1.083       .  S
C1008      S1010   1.805       .  S
S1009      H1012   1.403   1_545  S
S1010      H1011   1.407       .  S
C1015      C1016   1.411       .  A
C1015      C1020   1.419       .  A
C1016      C1017   1.407       .  A
C1016      H1025   1.082       .  S
C1017      C1018   1.411       .  A
C1017      S1021   1.798       .  S
C1018      C1019   1.406       .  A
C1019      C1020   1.403       .  A
C1019      H1026   1.082       .  S
C1020      S1022   1.813       .  S
S1021      H1024   1.403       .  S
S1022      H1023   1.406       .  S
C1027      C1028   1.403       .  A
C1027      C1032   1.425       .  A
C1028      C1029   1.385       .  A
C1028      H1037   1.083       .  S
C1029      C1030   1.407       .  A
C1029      S1033   1.802       .  S
C1030      C1031   1.399       .  A
C1031      C1032   1.401       .  A
C1031      H1038   1.084       .  S
C1032      S1034   1.802       .  S
S1033      H1036   1.405       .  S
S1034      H1035   1.401       .  S
C1039      C1040   1.407       .  A
C1039      C1044   1.387       .  A
C1040      C1041   1.408       .  A
C1040      H1049   1.083       .  S
C1041      C1042   1.420       .  A
C1041      S1045   1.797       .  S
C1042      C1043   1.425       .  A
C1043      C1044   1.389       .  A
C1043      H1050   1.073       .  S
C1044      S1046   1.802       .  S
S1045      H1048   1.407       .  S
S1046      H1047   1.406       .  S
C1051      C1052   1.410       .  A
C1051      C1056   1.427       .  A
C1052      C1053   1.403       .  A
C1052      H1061   1.083       .  S
C1053      C1054   1.410       .  A
C1053      S2143   1.802       .  S
C1054      C1055   1.391       .  A
C1055      C1056   1.395       .  A
C1055      H1062   1.084       .  S
C1056      S1058   1.803       .  S
S1057      C2139   1.802       .  S
S1057      H1060   1.406       .  S
S1058      H1059   1.407       .  S
C1063      C1064   1.415       .  A
C1063      C1068   1.419   1_455  A
C1064      C1065   1.400       .  A
C1064      H1073   1.074       .  S
C1065      C1066   1.408   1_455  A
C1065      S1069   1.813       .  S
C1066      C1067   1.411       .  A
C1067      C1068   1.411       .  A
C1067      H1074   1.078       .  S
C1068      S1070   1.802       .  S
S1069      H1072   1.405       .  S
S1070      H1071   1.407       .  S
C1075      C1076   1.392       .  A
C1075      C1080   1.412       .  A
C1076      C1077   1.394       .  A
C1076      H1085   1.084       .  S
C1077      C1078   1.425       .  A
C1077      S2167   1.805       .  S
C1078      C1079   1.398       .  A
C1079      C1080   1.398       .  A
C1079      H1086   1.079       .  S
C1080      S1082   1.803       .  S
S1081      C2163   1.805   1_545  S
S1081      H1084   1.406       .  S
S1082      H1083   1.402       .  S
C1087      C1088   1.555       .  S
C1087      C1093   1.523       .  S
C1087      C1091   1.523       .  S
C1087      C1575   1.516       .  S
C1088      H1095   1.083       .  S
C1088      C1089   1.387       .  D
C1089      C1090   1.545       .  S
C1089      C2149   1.519       .  S
C1090      C1094   1.542       .  S
C1090      C1092   1.561       .  S
C1090      H1096   1.107       .  S
C1091      H1097   1.087       .  S
C1091      C1092   1.355       .  D
C1092      C2161   1.471       .  S
C1093      H1098   1.074       .  S
C1093      C1094   1.352       .  D
C1094      C1143   1.493       .  S
C1099      C1100   1.548       .  S
C1099      C1105   1.517       .  S
C1099      C1103   1.525       .  S
C1099      C1560   1.509       .  S
C1100      H1107   1.086       .  S
C1100      C1101   1.385       .  D
C1101      C1102   1.544       .  S
C1101      C2137   1.504       .  S
C1102      C1106   1.550       .  S
C1102      C1104   1.559       .  S
C1102      H1108   1.101       .  S
C1103      H1109   1.088       .  S
C1103      C1104   1.351       .  D
C1104      C2125   1.474       .  S
C1105      H1110   1.067       .  S
C1105      C1106   1.348       .  D
C1106      C1138   1.498       .  S
C1111      C1112   1.552       .  S
C1111      C1117   1.527       .  S
C1111      C1115   1.535       .  S
C1111      C1564   1.516       .  S
C1112      H1119   1.086       .  S
C1112      C1113   1.375       .  D
C1113      C1114   1.530       .  S
C1113      C2101   1.494       .  S
C1114      C1118   1.536       .  S
C1114      C1116   1.548       .  S
C1114      H1120   1.100       .  S
C1115      H1121   1.084       .  S
C1115      C1116   1.371       .  D
C1116      C2113   1.489       .  S
C1117      H1122   1.076       .  S
C1117      C1118   1.354       .  D
C1118      C1142   1.491       .  S
O1123      C1138   1.275       .  A
O1123     Al1131   1.969       .  S
C1124      C1535   1.525       .  S
C1124      O1134   1.272       .  A
C1124      O1125   1.263       .  A
O1125     Al1127   1.916       .  S
O1126      C1128   1.275       .  A
O1126     Al1127   1.965       .  S
Al1127     O1135   1.956       .  S
Al1127     O1137   1.922       .  S
Al1127     O1136   1.783       .  S
C1128      C1523   1.526       .  S
C1128      O1141   1.261       .  A
O1129      C1139   1.274       .  A
O1129     Al1131   1.963       .  S
O1130      C1143   1.274       .  A
O1130     Al1140   1.961       .  S
Al1131     O1144   1.918       .  S
Al1131     O1141   1.910       .  S
Al1131     O1136   1.782       .  S
O1132      C1139   1.261       .  A
O1132     Al1140   1.910       .  S
O1133      C1142   1.263       .  A
O1133     Al1140   1.918       .  S
O1134     Al1140   1.952       .  S
O1135      C1142   1.272       .  A
O1136     Al1140   1.782       .  S
O1137      C1138   1.261       .  A
C1139      C1547   1.526       .  S
C1143      O1144   1.263       .  A
N1145      C1150   1.347   1_554  A
N1145      C1149   1.342   1_554  A
N1145      H1177   1.043       .  S
N1146      C1153   1.350       .  A
N1146      C1154   1.345       .  A
N1147      C1152   1.355       .  A
N1147      C1151   1.365       .  A
N1148      C1155   1.346   1_565  A
N1148      C1156   1.337   1_565  A
C1149      C1157   1.383       .  A
C1149      C1165   1.394       .  A
C1150      C1166   1.412       .  A
C1150      C1158   1.391       .  A
C1151      C1159   1.395       .  A
C1151      C1168   1.441       .  A
C1152      C1167   1.420       .  A
C1152      C1160   1.380       .  A
C1153      C1165   1.409   1_554  A
C1153      C1161   1.382       .  A
C1154      C1162   1.392       .  A
C1155      C1163   1.384       .  A
C1155      C1166   1.402   1_544  A
C1156      C1164   1.389       .  A
C1157      C1158   1.368       .  A
C1157      H1169   1.083       .  S
C1158      H1170   1.077       .  S
C1159      C1160   1.361       .  A
C1159      H1171   1.072       .  S
C1160      H1172   1.083       .  S
C1161      C1162   1.382       .  A
C1161      H1173   1.080       .  S
C1162      H1174   1.080       .  S
C1163      C1164   1.384       .  A
C1163      H1175   1.083       .  S
C1164      H1176   1.082       .  S
C1165      C2164   1.491       .  S
C1166      C2140   1.477       .  S
C1167      C2080   1.474       .  S
C1168      C2089   1.509       .  S
C1179      C1180   1.548       .  S
C1179      C1185   1.510       .  S
C1179      C1183   1.533       .  S
C1179      C1404   1.511       .  S
C1180      H1187   1.083       .  S
C1180      C1181   1.386       .  D
C1181      C1182   1.544       .  S
C1181      C2065   1.504       .  S
C1182      C1186   1.552       .  S
C1182      C1184   1.574       .  S
C1182      H1188   1.108       .  S
C1183      C1184   1.351       .  D
C1184      C2092   1.498       .  S
C1185      H1190   1.058       .  S
C1185      C1186   1.345       .  D
C1186      C1234   1.502       .  S
C1191      C1192   1.567       .  S
C1191      C1197   1.521       .  S
C1191      C1195   1.540       .  S
C1191      C1400   1.543       .  S
C1192      H1199   1.084       .  S
C1192      C1193   1.402       .  D
C1193      C1194   1.545       .  S
C1193      C2053   1.507       .  S
C1194      C1198   1.549       .  S
C1194      C1196   1.540       .  S
C1194      H1200   1.100       .  S
C1195      H1201   1.087       .  S
C1195      C1196   1.350       .  D
C1196      C2044   1.503       .  S
C1197      H1202   1.074       .  S
C1197      C1198   1.358       .  D
C1198      C1230   1.516       .  S
C1203      C1204   1.531       .  S
C1203      C1209   1.523       .  S
C1203      C1207   1.547       .  S
C1203      C1415   1.525       .  S
C1204      H1211   1.086       .  S
C1204      C1205   1.379       .  D
C1205      C1206   1.550       .  S
C1205      C2077   1.478       .  S
C1206      C1210   1.547       .  S
C1206      C1208   1.539       .  S
C1206      H1212   1.108       .  S
C1207      H1213   1.087       .  S
C1207      C1208   1.360       .  D
C1208      C2029   1.493       .  S
C1209      H1214   1.076       .  S
C1209      C1210   1.361       .  D
C1210      C1235   1.498       .  S
O1215      C1230   1.278       .  A
O1215     Al1223   1.971       .  S
C1216      C1363   1.514       .  S
C1216      O1226   1.268       .  A
C1216      O1217   1.259       .  A
O1217     Al1219   1.908       .  S
O1218      C1220   1.268       .  A
O1218     Al1219   1.969       .  S
Al1219     O1227   1.968       .  S
Al1219     O1229   1.934       .  S
Al1219     O1228   1.791       .  S
C1220      C1375   1.530       .  S
C1220      O1233   1.264       .  A
O1221      C1231   1.271       .  A
O1221     Al1223   1.986       .  S
O1222      C1235   1.269       .  A
O1222     Al1232   1.931       .  S
Al1223     O1236   1.939       .  S
Al1223     O1233   1.887       .  S
Al1223     O1228   1.774       .  S
O1224      C1231   1.261       .  A
O1224     Al1232   1.888       .  S
O1225      C1234   1.263       .  A
O1225     Al1232   1.923       .  S
O1226     Al1232   1.938       .  S
O1227      C1234   1.279       .  A
O1228     Al1232   1.777       .  S
O1229      C1230   1.268       .  A
C1231      C1387   1.538       .  S
C1235      O1236   1.269       .  A
N1237      C1242   1.351   1_554  A
N1237      C1241   1.347   1_554  A
N1237      H1269   1.041   1_655  S
N1238      C1245   1.339       .  A
N1238      C1246   1.347       .  A
N1239      C1244   1.347       .  A
N1239      C1243   1.349       .  A
N1239      H3442   1.044       .  S
N1240      C1247   1.350       .  A
N1240      C1248   1.348       .  A
C1241      C1249   1.389       .  A
C1241      C1257   1.412   1_655  A
C1242      C1258   1.406       .  A
C1242      C1250   1.384       .  A
C1243      C1251   1.378       .  A
C1243      C1260   1.402       .  A
C1244      C1259   1.414       .  A
C1244      C1252   1.393       .  A
C1245      C1257   1.408   1_554  A
C1245      C1253   1.386       .  A
C1246      C3432   1.405       .  A
C1246      C1254   1.383       .  A
C1247      C1255   1.383       .  A
C1247      C1258   1.417   1_554  A
C1248      C1256   1.385       .  A
C1248      C3431   1.413       .  A
C1249      C1250   1.374       .  A
C1249      H1261   1.082       .  S
C1250      H1262   1.081       .  S
C1251      C1252   1.363       .  A
C1251      H1263   1.081       .  S
C1252      H1264   1.072       .  S
C1253      C1254   1.390       .  A
C1253      H1265   1.079       .  S
C1254      H3438   1.082       .  S
C1255      C1256   1.387       .  A
C1255      H1267   1.077       .  S
C1256      H1268   1.082       .  S
C1257      C2116   1.473       .  S
C1258      C2152   1.498       .  S
C1259      C3420   1.413       .  A
C1259      C2056   1.490       .  S
C1260      C3418   1.406       .  A
C1260      C2032   1.497       .  S
H1266      C3426   1.082       .  S
H1270      N3411   1.044   1_455  S
N1271      C1276   1.345   1_554  A
N1271      C1275   1.346   1_554  A
N1271      H1303   1.045       .  S
N1272      C1279   1.343       .  A
N1272      C1280   1.336       .  A
N1273      C1278   1.348       .  A
N1273      C1277   1.348       .  A
N1273      H1304   1.044       .  S
N1274      C1281   1.350       .  A
N1274      C1282   1.348       .  A
C1275      C1283   1.380       .  A
C1275      C1291   1.404       .  A
C1276      C1292   1.413       .  A
C1276      C1284   1.390       .  A
C1277      C1285   1.391       .  A
C1277      C1294   1.412       .  A
C1278      C1293   1.403       .  A
C1278      C1286   1.384       .  A
C1279      C1291   1.409   1_554  A
C1279      C1287   1.387       .  A
C1280      C1294   1.402       .  A
C1280      C1288   1.385       .  A
C1281      C1289   1.391       .  A
C1281      C1292   1.429   1_554  A
C1282      C1290   1.382       .  A
C1282      C1293   1.412       .  A
C1283      C1284   1.384       .  A
C1283      H1295   1.082       .  S
C1284      H1296   1.073       .  S
C1285      C1286   1.367       .  A
C1285      H1297   1.081       .  S
C1286      H1298   1.081       .  S
C1287      C1288   1.392       .  A
C1287      H1299   1.081       .  S
C1288      H1300   1.082       .  S
C1289      C1290   1.393       .  A
C1289      H1301   1.078       .  S
C1290      H1302   1.082       .  S
C1291      C2104   1.493       .  S
C1292      C2128   1.522       .  S
C1293      C2041   1.498       .  S
C1294      C2068   1.470       .  S
C1305      C1306   1.543       .  S
C1305      C1311   1.520       .  S
C1305      C1309   1.545       .  S
C1305      C1622   1.530       .  S
C1306      H1313   1.088       .  S
C1306      C3479   1.353       .  D
C1307      C1308   1.552   1_655  S
C1307      C3478   1.355       .  D
C1307      C2008   1.498       .  S
C1308      C1312   1.548       .  S
C1308      C1310   1.558   1_455  S
C1308      H1314   1.109       .  S
C1309      H1315   1.083       .  S
C1309      C3482   1.390       .  D
C1310      C3481   1.386       .  D
C1310      C2017   1.501       .  S
C1311      H1316   1.069       .  S
C1311      C3484   1.353       .  D
C1312      C3483   1.354       .  D
C1312      C1360   1.499       .  S
C1317      C1318   1.540       .  S
C1317      C1323   1.524       .  S
C1317      C1321   1.543       .  S
C1317      C1633   1.524       .  S
C1318      H1325   1.088       .  S
C1318      C1319   1.348       .  D
C1319      C1320   1.554       .  S
C1319      C1981   1.496       .  S
C1320      C1324   1.557       .  S
C1320      C1322   1.559       .  S
C1320      H1326   1.109       .  S
C1321      H1327   1.084       .  S
C1321      C1322   1.386       .  D
C1322      C1996   1.506       .  S
C1323      H1328   1.072       .  S
C1323      C1324   1.358       .  D
C1324      C1361   1.506       .  S
C1329      C1330   1.544       .  S
C1329      C1335   1.525       .  S
C1329      C1333   1.552       .  S
C1329      C1618   1.524       .  S
C1330      H1337   1.085       .  S
C1331      C1332   1.558   1_545  S
C1331      C1957   1.486       .  S
C1332      C1336   1.535       .  S
C1332      C1334   1.541   1_565  S
C1332      H1338   1.110       .  S
C1333      H1339   1.085       .  S
C1334      C1969   1.506       .  S
C1335      H1340   1.076       .  S
C1336      C1356   1.495       .  S
O1341      C1356   1.266       .  A
O1341     Al1349   1.925       .  S
C1342      C1593   1.531       .  S
C1342      O1352   1.260       .  A
C1342      O1343   1.270       .  A
O1343     Al1345   1.966       .  S
O1344      C1346   1.262       .  A
O1344     Al1345   1.900       .  S
Al1345     O1353   1.935       .  S
Al1345     O1355   1.953       .  S
Al1345     O1354   1.783       .  S
C1346      C1581   1.532       .  S
C1346      O1359   1.270       .  A
O1347      C1357   1.263       .  A
O1347     Al1349   1.904       .  S
O1348      C1361   1.266       .  A
O1348     Al1358   1.932       .  S
Al1349     O1362   1.969       .  S
Al1349     O1359   1.966       .  S
Al1349     O1354   1.788       .  S
O1350      C1357   1.268       .  A
O1350     Al1358   1.942       .  S
O1351      C1360   1.269       .  A
O1351     Al1358   1.946       .  S
O1352     Al1358   1.886       .  S
O1353      C1360   1.266       .  A
O1354     Al1358   1.781       .  S
O1355      C1356   1.272       .  A
C1357      C1605   1.524       .  S
C1361      O1362   1.274       .  A
C1363      C1364   1.536       .  S
C1363      C1369   1.511       .  S
C1363      C1367   1.540       .  S
C1364      H1371   1.077       .  S
C1364      C1365   1.388       .  D
C1365      C1366   1.566       .  S
C1365      C1948   1.518       .  S
C1366      C1370   1.545       .  S
C1366      C1368   1.552       .  S
C1366      H1372   1.103       .  S
C1367      H1373   1.086       .  S
C1367      C1368   1.366       .  D
C1368      C1933   1.496       .  S
C1369      H1374   1.071       .  S
C1369      C1370   1.342       .  D
C1370      C1414   1.493       .  S
C1375      C1376   1.541       .  S
C1375      C1381   1.518       .  S
C1375      C1379   1.562       .  S
C1376      H1383   1.088       .  S
C1376      C1377   1.345       .  D
C1377      C1378   1.534       .  S
C1377      C1912   1.489       .  S
C1378      C1382   1.530       .  S
C1378      C1380   1.547       .  S
C1378      H1384   1.100       .  S
C1379      H1385   1.084       .  S
C1379      C1380   1.400       .  D
C1380      C1921   1.502       .  S
C1381      H1386   1.074       .  S
C1381      C1382   1.354       .  D
C1382      C1418   1.484       .  S
C1387      C1388   1.543       .  S
C1387      C1393   1.528       .  S
C1387      C1391   1.540       .  S
C1388      H1395   1.087       .  S
C1388      C1389   1.357       .  D
C1389      C1390   1.547       .  S
C1389      C1897   1.496       .  S
C1390      C1394   1.560       .  S
C1390      C1392   1.556       .  S
C1390      H1396   1.109       .  S
C1391      H1397   1.085       .  S
C1391      C1392   1.383       .  D
C1392      C1885   1.493       .  S
C1393      H1398   1.069       .  S
C1393      C1394   1.362       .  D
C1394      C1419   1.517       .  S
O1399      C1414   1.265       .  A
O1399     Al1407   1.938       .  S
C1400      O1410   1.268       .  A
C1400      O3573   1.264       .  A
O1401      C3572   1.265       .  A
O1401     Al1403   1.958   1_655  S
O1402     Al1403   1.858       .  S
Al1403     O1411   1.886       .  S
Al1403     O1413   1.939       .  S
Al1403     O1412   1.786       .  S
C1404      O1417   1.273       .  A
O1405      C3587   1.262   1_455  A
O1405     Al1407   1.889       .  S
O1406     Al1416   1.960       .  S
Al1407     O1420   1.952   1_455  S
Al1407     O1417   1.967       .  S
O1408     Al1416   1.962   1_545  S
O1409      C1418   1.279       .  A
O1409     Al1416   1.970       .  S
O1410     Al1416   1.925       .  S
O1411      C3590   1.258   1_455  A
O1412     Al3588   1.777   1_455  S
C1415      O3577   1.260       .  A
Al1416     O3584   1.775       .  S
C1418      O3583   1.258       .  A
C1419      O3592   1.272       .  A
O1420      C3591   1.271       .  A
N1421      C1426   1.347       .  A
N1421      C1425   1.348       .  A
N1421      H1453   1.043       .  S
N1422      C1429   1.343       .  A
N1422      C1430   1.342       .  A
N1423      C1428   1.347       .  A
N1423      C1427   1.348       .  A
N1423      H1454   1.044       .  S
N1424      C1431   1.343       .  A
N1424      C1432   1.347       .  A
C1425      C1433   1.383       .  A
C1425      C1441   1.406       .  A
C1426      C1442   1.412       .  A
C1426      C1434   1.391       .  A
C1427      C1435   1.389       .  A
C1427      C1444   1.408       .  A
C1428      C1443   1.407       .  A
C1428      C1436   1.384       .  A
C1429      C1441   1.409       .  A
C1429      C1437   1.385   1_455  A
C1430      C1444   1.404       .  A
C1430      C1438   1.385   1_455  A
C1431      C1439   1.389       .  A
C1431      C1442   1.413       .  A
C1432      C1440   1.385       .  A
C1432      C1443   1.410       .  A
C1433      C1434   1.373       .  A
C1433      H1445   1.083       .  S
C1434      H1446   1.080       .  S
C1435      C1436   1.363       .  A
C1435      H1447   1.080       .  S
C1436      H1448   1.078       .  S
C1437      C1438   1.391       .  A
C1437      H3621   1.077       .  S
C1438      H3622   1.082       .  S
C1439      C1440   1.392       .  A
C1439      H1451   1.082       .  S
C1440      H1452   1.081       .  S
C1441      C1888   1.488       .  S
C1442      C1945   1.481       .  S
C1443      C1984   1.499       .  S
C1444      C2020   1.474       .  S
H1449      C3609   1.078       .  S
H1450      C3610   1.082       .  S
N1455      C1460   1.338       .  A
N1455      C1459   1.344       .  A
N1455      H1487   1.045       .  S
N1456      C1463   1.351   1_565  A
N1456      C1464   1.342   1_565  A
N1457      C1462   1.354       .  A
N1457      C1461   1.355       .  A
N1457      H1488   1.038       .  S
N1458      C1465   1.354       .  A
N1458      C1466   1.339       .  A
C1459      C1467   1.385       .  A
C1459      C1475   1.387       .  A
C1460      C1476   1.385       .  A
C1460      C1468   1.387       .  A
C1461      C1469   1.380       .  A
C1461      C1478   1.412   1_565  A
C1462      C1477   1.429       .  A
C1462      C1470   1.395       .  A
C1463      C1475   1.418   1_545  A
C1463      C1471   1.388       .  A
C1464      C1478   1.411       .  A
C1464      C1472   1.384       .  A
C1465      C1473   1.380       .  A
C1465      C1476   1.401       .  A
C1466      C1474   1.388       .  A
C1466      C1477   1.415       .  A
C1467      C1468   1.361       .  A
C1467      H1479   1.083       .  S
C1468      H1480   1.083       .  S
C1469      C1470   1.365       .  A
C1469      H1481   1.083   1_565  S
C1470      H1482   1.075       .  S
C1471      C1472   1.392       .  A
C1473      C1474   1.385       .  A
C1473      H1485   1.082       .  S
C1474      H1486   1.075       .  S
C1475      C1960   1.504       .  S
C1476      C1993   1.483       .  S
C1477      C1924   1.487       .  S
C1478      C1900   1.503       .  S
N1489      C1494   1.355       .  A
N1489      C1493   1.357       .  A
N1489      H1521   1.044       .  S
N1490      C1497   1.351   1_455  A
N1490      C1498   1.350   1_455  A
N1491      C1496   1.352       .  A
N1491      C1495   1.351       .  A
N1491      H1522   1.044       .  S
N1492      C1499   1.348       .  A
N1492      C1500   1.353       .  A
C1493      C1501   1.386       .  A
C1493      C1509   1.418   1_455  A
C1494      C1510   1.415       .  A
C1494      C1502   1.389       .  A
C1495      C1503   1.389       .  A
C1495      C1512   1.414       .  A
C1496      C1511   1.408       .  A
C1496      C1504   1.385       .  A
C1497      C1509   1.421       .  A
C1497      C1505   1.381       .  A
C1498      C1512   1.422   1_655  A
C1498      C1506   1.384       .  A
C1499      C1507   1.387   1_565  A
C1499      C1510   1.417       .  A
C1500      C1508   1.385   1_565  A
C1500      C1511   1.417       .  A
C1501      C1502   1.360       .  A
C1501      H1513   1.081       .  S
C1502      H1514   1.082       .  S
C1503      C1504   1.369       .  A
C1503      H1515   1.082       .  S
C1504      H1516   1.083       .  S
C1505      C1506   1.383       .  A
C1505      H3689   1.076       .  S
C1506      H3690   1.076       .  S
C1507      C1508   1.380       .  A
C1509      C2005   1.522       .  S
C1510      C1972   1.490       .  S
C1511      C1936   1.507       .  S
C1512      C1909   1.510   1_455  S
H1517      C3677   1.078       .  S
H1518      C3678   1.077       .  S
C1523      C1524   1.542       .  S
C1523      C1529   1.526       .  S
C1523      C1527   1.538       .  S
C1524      H1531   1.086       .  S
C1524      C1525   1.376       .  D
C1525      C1526   1.556       .  S
C1525      C1861   1.496       .  S
C1526      C1530   1.546       .  S
C1526      C1528   1.540       .  S
C1526      H1532   1.108       .  S
C1527      H1533   1.087       .  S
C1527      C1528   1.370       .  D
C1528      C1876   1.489       .  S
C1529      H1534   1.069       .  S
C1529      C1530   1.356       .  D
C1530      C1578   1.500       .  S
C1535      C1536   1.545       .  S
C1535      C1541   1.526       .  S
C1535      C1539   1.540       .  S
C1536      H1543   1.084       .  S
C1536      C1537   1.380       .  D
C1537      C1538   1.555       .  S
C1537      C1849   1.501       .  S
C1538      C1542   1.535       .  S
C1538      C1540   1.544       .  S
C1538      H1544   1.109       .  S
C1539      H1545   1.086       .  S
C1539      C1540   1.369       .  D
C1540      C1837   1.495       .  S
C1541      H1546   1.068       .  S
C1541      C1542   1.355       .  D
C1542      C1574   1.499       .  S
C1547      C1548   1.544       .  S
C1547      C1553   1.530       .  S
C1547      C1551   1.533       .  S
C1548      H1555   1.084       .  S
C1548      C1549   1.379       .  D
C1549      C1550   1.553       .  S
C1549      C1813   1.501       .  S
C1550      C1554   1.527       .  S
C1550      C1552   1.533       .  S
C1550      H1556   1.108       .  S
C1551      H1557   1.087       .  S
C1551      C1552   1.367       .  D
C1552      C1825   1.472       .  S
C1553      H1558   1.069       .  S
C1553      C1554   1.358       .  D
C1554      C1579   1.487       .  S
O1559      C1574   1.269       .  A
O1559     Al1567   1.937       .  S
C1560      O1570   1.257       .  A
C1560      O1561   1.267       .  A
O1562      C1564   1.262       .  A
O1562     Al3735   1.910   1_455  S
Al1563     O3734   1.922       .  S
Al1563     O3745   1.949       .  S
Al1563     O2658   1.785       .  S
C1564      O1577   1.268       .  A
O1565      C1575   1.262       .  A
O1566      C1579   1.262       .  A
O1566     Al3748   1.910   1_455  S
Al1567     O1577   1.939       .  S
O1568      C1575   1.267       .  A
O1568     Al3748   1.949   1_455  S
O1569      C1578   1.272       .  A
O1569     Al1576   1.951       .  S
O1570     Al1576   1.867       .  S
O1571      C1578   1.266   1_545  A
O1572     Al2649   1.788   1_465  S
O1572     Al3748   1.783   1_455  S
O1573      C1574   1.271       .  A
O1573     Al3735   1.945   1_455  S
Al1576     O3738   1.911       .  S
Al1576     O3740   1.956       .  S
Al1576     O3744   1.780       .  S
C1579      O1580   1.271       .  A
C1581      C1582   1.565       .  S
C1581      C1587   1.525       .  S
C1581      C1585   1.530       .  S
C1582      H1589   1.085       .  S
C1582      C1583   1.390       .  D
C1583      C1789   1.500   1_565  S
C1584      C1588   1.549       .  S
C1584      H1590   1.101       .  S
C1585      H1591   1.086       .  S
C1585      C1586   1.355       .  D
C1586      C1801   1.492       .  S
C1587      H1592   1.060       .  S
C1588      C1636   1.519       .  S
C1593      C1594   1.539       .  S
C1593      C1599   1.520       .  S
C1593      C1597   1.546       .  S
C1594      H1601   1.084       .  S
C1594      C1595   1.388       .  D
C1595      C3768   1.551   1_455  S
C1595      C1768   1.493       .  S
C1596      C3767   1.553       .  S
C1596      C1600   1.554       .  S
C1596      C3770   1.545       .  S
C1596      H1602   1.101       .  S
C1597      H1603   1.087       .  S
C1597      C1598   1.357       .  D
C1598      C3768   1.545   1_455  S
C1598      C1777   1.503       .  S
C1599      H1604   1.078   1_455  S
C1599      C3772   1.361   1_455  D
C1600      C3771   1.363       .  D
C1600      C1632   1.511       .  S
C1605      C1606   1.540       .  S
C1605      C1611   1.524       .  S
C1605      C1609   1.544       .  S
C1606      H1613   1.083       .  S
C1606      C1607   1.384       .  D
C1607      C1608   1.552       .  S
C1607      C1753   1.492       .  S
C1608      C1612   1.546       .  S
C1608      C1610   1.559       .  S
C1608      H1614   1.107       .  S
C1609      H1615   1.087       .  S
C1609      C1610   1.363       .  D
C1610      C1741   1.512       .  S
C1611      H1616   1.077       .  S
C1611      C1612   1.354       .  D
C1612      C1637   1.508       .  S
O1617      C1632   1.271       .  A
O1617     Al1625   1.936       .  S
C1618      O1628   1.271       .  A
C1618      O1619   1.254       .  A
O1619     Al1621   1.894       .  S
O1620      C1622   1.273       .  A
O1620     Al1621   1.980       .  S
Al1621     O1629   2.005       .  S
Al1621     O1631   1.945       .  S
Al1621     O1630   1.788       .  S
C1622      O1635   1.261       .  A
O1623      C1633   1.265       .  A
O1623     Al1625   1.963       .  S
O1624      C1637   1.277       .  A
O1624     Al1634   1.966       .  S
Al1625     O1638   1.935       .  S
Al1625     O1635   1.875       .  S
Al1625     O1630   1.783       .  S
O1626      C1633   1.259       .  A
O1626     Al1634   1.874       .  S
O1627      C1636   1.263       .  A
O1627     Al1634   1.915       .  S
O1628     Al1634   1.968       .  S
O1629      C1636   1.286       .  A
O1630     Al1634   1.774       .  S
O1631      C1632   1.271       .  A
C1637      O1638   1.269       .  A
N1639      C1644   1.361       .  A
N1639      C1643   1.357       .  A
N1639      H1671   1.038       .  S
N1640      C1647   1.344       .  A
N1640      C1648   1.349       .  A
N1641      C1646   1.345       .  A
N1641      C1645   1.349       .  A
N1641      H1672   1.038       .  S
N1642      C1649   1.352       .  A
N1642      C1650   1.351       .  A
C1643      C1651   1.388       .  A
C1643      C1659   1.427       .  A
C1644      C1660   1.425       .  A
C1644      C1652   1.384       .  A
C1645      C1653   1.384       .  A
C1645      C1662   1.405       .  A
C1646      C1661   1.409       .  A
C1646      C1654   1.388       .  A
C1647      C1659   1.405       .  A
C1647      C3827   1.388       .  A
C1648      C1662   1.408       .  A
C1648      C3828   1.384       .  A
C1649      C1657   1.383       .  A
C1649      C1660   1.415       .  A
C1650      C1658   1.384       .  A
C1650      C1661   1.415       .  A
C1651      C1652   1.354       .  A
C1651      H1663   1.075       .  S
C1652      H1664   1.078       .  S
C1653      C1654   1.373       .  A
C1653      H1665   1.081       .  S
C1654      H1666   1.082       .  S
C1655      C3819   1.388   1_455  A
C1655      C1656   1.378       .  A
C1655      H1667   1.082       .  S
C1656      C3820   1.383   1_455  A
C1656      H1668   1.083       .  S
C1657      C1658   1.382       .  A
C1657      H1669   1.079       .  S
C1658      H1670   1.079       .  S
C1659      C1765   1.481       .  S
C1660      C1744   1.515       .  S
C1661      C1873   1.484       .  S
C1662      C3988   1.486       .  S
N1673      C1678   1.345       .  A
N1673      C1677   1.349       .  A
N1673      H1705   1.043       .  S
N1674      C1681   1.347       .  A
N1674      C1682   1.342       .  A
N1675      C1680   1.354       .  A
N1675      C1679   1.346       .  A
N1675      H1706   1.038       .  S
N1676      C1683   1.343       .  A
N1676      C1684   1.345       .  A
C1677      C1685   1.384       .  A
C1677      C1693   1.404       .  A
C1678      C1694   1.403       .  A
C1678      C1686   1.388       .  A
C1679      C1687   1.386       .  A
C1679      C1696   1.412       .  A
C1680      C1695   1.412       .  A
C1680      C1688   1.385       .  A
C1681      C1693   1.403       .  A
C1682      C1696   1.408       .  A
C1683      C1691   1.384       .  A
C1683      C1694   1.399       .  A
C1684      C1692   1.388       .  A
C1684      C1695   1.411       .  A
C1685      C1686   1.366       .  A
C1685      H1697   1.080       .  S
C1686      H1698   1.082       .  S
C1687      C1688   1.373       .  A
C1687      H1699   1.081       .  S
C1688      H1700   1.080       .  S
C1689      C1690   1.384       .  A
C1689      H1701   1.081       .  S
C1690      H1702   1.082       .  S
C1691      C1692   1.380       .  A
C1691      H1703   1.082       .  S
C1692      H1704   1.080       .  S
C1693      C1804   1.487       .  S
C1694      C1756   1.463       .  S
C1695      C1852   1.488       .  S
N1707      C1712   1.350       .  A
N1707      C1711   1.347       .  A
N1707      H1739   1.039       .  S
N1708      C1715   1.347       .  A
N1708      C1716   1.349       .  A
N1709      C1714   1.355       .  A
N1709      C1713   1.355       .  A
N1709      H1740   1.042       .  S
N1710      C1717   1.349       .  A
N1710      C1718   1.347       .  A
C1711      C1719   1.387       .  A
C1711      C1727   1.410       .  A
C1712      C1728   1.408       .  A
C1712      C1720   1.386       .  A
C1713      C1721   1.379       .  A
C1713      C1730   1.415       .  A
C1714      C1729   1.417       .  A
C1714      C1722   1.388       .  A
C1715      C1727   1.416       .  A
C1715      C3895   1.387       .  A
C1716      C1730   1.413       .  A
C1716      C3896   1.386       .  A
C1717      C1728   1.414       .  A
C1718      C1729   1.409       .  A
C1719      C1720   1.373       .  A
C1719      H1731   1.082       .  S
C1720      H1732   1.079       .  S
C1721      C1722   1.356       .  A
C1721      H1733   1.076       .  S
C1722      H1734   1.075       .  S
C1723      C3887   1.387       .  A
C1723      C1724   1.390       .  A
C1723      H1735   1.080       .  S
C1724      C3888   1.385       .  A
C1724      H1736   1.083       .  S
C1725      C1726   1.383       .  A
C1725      H1737   1.077   1_545  S
C1726      H1738   1.082   1_545  S
C1727      C4012   1.485       .  S
C1729      C1792   1.486       .  S
C1730      C1780   1.504       .  S
C1741      C1742   1.410       .  A
C1741      C1746   1.409       .  A
C1742      C1743   1.406       .  A
C1742      H1751   1.082       .  S
C1743      C1744   1.417       .  A
C1743      S1747   1.805       .  S
C1744      C1745   1.416       .  A
C1745      C1746   1.411       .  A
C1745      H1752   1.084       .  S
C1746      S1748   1.800       .  S
S1747      H1750   1.402       .  S
S1748      H1749   1.406       .  S
C1753      C1754   1.410       .  A
C1753      C1758   1.419       .  A
C1754      C1755   1.382       .  A
C1754      H1763   1.076       .  S
C1755      C1756   1.396       .  A
C1755      S1759   1.806       .  S
C1756      C1757   1.404       .  A
C1757      C1758   1.400       .  A
C1757      H1764   1.084       .  S
C1758      S1760   1.803       .  S
S1759      H1762   1.407       .  S
S1760      H1761   1.407       .  S
C1765      C1766   1.400       .  A
C1765      C3942   1.411       .  A
C1766      C1767   1.393       .  A
C1766      H1775   1.085       .  S
C1767      C3940   1.416       .  A
C1767      S1771   1.805       .  S
C1768      C3939   1.418   1_455  A
C1768      C1769   1.410       .  A
C1769      C1770   1.397       .  A
C1769      H1776   1.081       .  S
C1770      C3937   1.408   1_455  A
C1770      S1772   1.803       .  S
S1771      H1774   1.406       .  S
S1772      H1773   1.398       .  S
C1777      C3950   1.410       .  A
C1777      C1782   1.408       .  A
C1778      C3949   1.410       .  A
C1778      C1779   1.401       .  A
C1778      H1787   1.083       .  S
C1779      C1780   1.411       .  A
C1779      S1783   1.799       .  S
C1780      C1781   1.417       .  A
C1781      C3954   1.410       .  A
C1781      H1788   1.084       .  S
C1782      C3953   1.409       .  A
C1782      S1784   1.800   1_455  S
S1783      H1786   1.406       .  S
S1784      H1785   1.407   1_655  S
C1789      C1794   1.418       .  A
C1790      C1791   1.402       .  A
C1790      H1799   1.082       .  S
C1791      C1792   1.416       .  A
C1791      S1795   1.802       .  S
C1792      C1793   1.398       .  A
C1793      H1800   1.084       .  S
C1794      S1796   1.812       .  S
S1795      H1798   1.400       .  S
S1796      H1797   1.406       .  S
C1801      C1806   1.420       .  A
C1802      C1803   1.401       .  A
C1802      H1811   1.083       .  S
C1803      C1804   1.418       .  A
C1803      S1807   1.803       .  S
C1804      C1805   1.396       .  A
C1806      S1808   1.799       .  S
S1807      H1810   1.408       .  S
S1808      H1809   1.405       .  S
C1813      C1814   1.406       .  A
C1813      C1818   1.420   1_455  A
C1814      C1815   1.396       .  A
C1814      H1823   1.078       .  S
C1815      C1816   1.412   1_455  A
C1815      S1819   1.812       .  S
C1816      C1817   1.403       .  A
C1816      C3834   1.487       .  S
C1817      C1818   1.407       .  A
C1817      H3996   1.083       .  S
C1818      S1820   1.800       .  S
S1819      H1822   1.407       .  S
S1820      H1821   1.407       .  S
H1824      C3989   1.084       .  S
C1825      C1826   1.407       .  A
C1825      C1830   1.409       .  A
C1826      C1827   1.394       .  A
C1826      H1835   1.083       .  S
C1827      C1828   1.408       .  A
C1827      S1831   1.801       .  S
C1828      C1829   1.405       .  A
C1829      C1830   1.390       .  A
C1829      H1836   1.085   1_565  S
C1830      S1832   1.806   1_565  S
S1831      H1834   1.403       .  S
S1832      H1833   1.406   1_545  S
C1837      C1838   1.401       .  A
C1837      C1842   1.425       .  A
C1838      C1839   1.396       .  A
C1838      H1847   1.084       .  S
C1839      C1840   1.416       .  A
C1839      S1843   1.804   1_455  S
C1840      C1841   1.400       .  A
C1840      C3899   1.487       .  S
C1841      C1842   1.405       .  A
C1841      H1848   1.084       .  S
C1842      S1844   1.801       .  S
S1843      H4018   1.405       .  S
S1844      H1845   1.405       .  S
H1846      S4015   1.405       .  S
C1849      C1850   1.404       .  A
C1849      C1854   1.420       .  A
C1850      C1851   1.381       .  A
C1850      H1859   1.072       .  S
C1851      C1852   1.408       .  A
C1851      S1855   1.805       .  S
C1852      C1853   1.407       .  A
C1853      C1854   1.410       .  A
C1853      H1860   1.081       .  S
C1854      S1856   1.801       .  S
S1855      H1858   1.401       .  S
S1856      H1857   1.406       .  S
C1861      C1862   1.402       .  A
C1861      C1866   1.415   1_565  A
C1862      C1863   1.392       .  A
C1862      H1871   1.075       .  S
C1863      C1864   1.413   1_565  A
C1863      S1867   1.801       .  S
C1864      C1865   1.409       .  A
C1865      C1866   1.408       .  A
C1866      S1868   1.802       .  S
S1867      H1870   1.400   1_565  S
S1868      H1869   1.406       .  S
C1873      C1874   1.406       .  A
C1873      C1878   1.410       .  A
C1874      C1875   1.396       .  A
C1874      H1883   1.085       .  S
C1875      C1876   1.412       .  A
C1875      S1879   1.806       .  S
C1876      C1877   1.412       .  A
C1877      C1878   1.401       .  A
C1877      H1884   1.083       .  S
C1878      S1880   1.803       .  S
S1879      H1882   1.406       .  S
S1880      H1881   1.403       .  S
C1885      C1886   1.412       .  A
C1885      C1890   1.412       .  A
C1886      C4059   1.403       .  A
C1886      H4067   1.082       .  S
C1887      C4058   1.404       .  A
C1887      C1888   1.409   1_655  A
C1887      S1891   1.803       .  S
C1888      C4061   1.407       .  A
C1889      C4060   1.406       .  A
C1889      C1890   1.398       .  A
C1889      H1896   1.084       .  S
C1890      S1892   1.810       .  S
S1891      H1894   1.406   1_655  S
S1892      H1893   1.408       .  S
H1895      C4058   1.083       .  S
C1897      C1898   1.410       .  A
C1898      C1899   1.401       .  A
C1898      H1907   1.082       .  S
C1899      S1903   1.801       .  S
C1900      C1901   1.418   1_545  A
C1901      C1902   1.405       .  A
C1901      H1908   1.084       .  S
C1902      S1904   1.802       .  S
S1903      H1906   1.395       .  S
S1904      H1905   1.406       .  S
C1909      C1910   1.418   1_655  A
C1909      C4086   1.417       .  A
C1910      C4083   1.403       .  A
C1910      H1919   1.080       .  S
C1911      C4082   1.404       .  A
C1911      C1912   1.402       .  A
C1911      S1915   1.800       .  S
C1912      C1913   1.400       .  A
C1913      C1914   1.392       .  A
C1913      H1920   1.083       .  S
C1914      C4081   1.416       .  A
C1914      S4088   1.780       .  S
S1915      H1918   1.407       .  S
S1916      C4086   1.779       .  S
S1916      H1917   1.403       .  S
C1921      C1922   1.408       .  A
C1921      C1926   1.416       .  A
C1922      C1923   1.410       .  A
C1922      H1931   1.080       .  S
C1923      C1924   1.420       .  A
C1923      S1927   1.802       .  S
C1924      C1925   1.393       .  A
C1925      C1926   1.386       .  A
C1925      H1932   1.083       .  S
C1926      S1928   1.815       .  S
S1927      H1930   1.406       .  S
S1928      H1929   1.407       .  S
C1933      C1938   1.417       .  A
C1934      C1935   1.403       .  A
C1934      H1943   1.083       .  S
C1935      C1936   1.424       .  A
C1935      S1939   1.800       .  S
C1937      C1938   1.402       .  A
C1937      H1944   1.078       .  S
C1938      S1940   1.802       .  S
S1939      H1942   1.407       .  S
S1940      H1941   1.404       .  S
C1945      C1946   1.399       .  A
C1945      C1950   1.405       .  A
C1946      C1947   1.401       .  A
C1946      H1955   1.084       .  S
C1947      C1948   1.427       .  A
C1947      S1951   1.802       .  S
C1948      C1949   1.415       .  A
C1949      C1950   1.396       .  A
C1949      H1956   1.071       .  S
C1950      S1952   1.812       .  S
S1951      H1954   1.407       .  S
S1952      H1953   1.406       .  S
C1957      C1958   1.391   1_545  A
C1957      C1962   1.420       .  A
C1958      C1959   1.389       .  A
C1958      H1967   1.086       .  S
C1959      C1960   1.436       .  A
C1959      S1963   1.814       .  S
C1960      C1961   1.407   1_565  A
C1961      C1962   1.404       .  A
C1961      H1968   1.083       .  S
S1963      H1966   1.401       .  S
S1964      H1965   1.407       .  S
C1969      C1970   1.406   1_545  A
C1969      C1974   1.414       .  A
C1970      C1971   1.386       .  A
C1970      H1979   1.067       .  S
C1971      C1972   1.402       .  A
C1971      S1975   1.803       .  S
C1972      C1973   1.412   1_565  A
C1973      C1974   1.417       .  A
S1975      H1978   1.401       .  S
S1976      H1977   1.407       .  S
C1981      C1982   1.411       .  A
C1981      C1986   1.408       .  A
C1982      C1983   1.399       .  A
C1982      H1991   1.081       .  S
C1983      C1984   1.410       .  A
C1983      S1987   1.800       .  S
C1984      C1985   1.418       .  A
C1985      C1986   1.406       .  A
C1985      H1992   1.084       .  S
C1986      S1988   1.804       .  S
S1987      H1990   1.401       .  S
S1988      H1989   1.404       .  S
C1993      C1994   1.407       .  A
C1993      C1998   1.412       .  A
C1994      C1995   1.411       .  A
C1994      H2003   1.084       .  S
C1995      C1996   1.418       .  A
C1995      S1999   1.799       .  S
C1996      C1997   1.404       .  A
C1997      C1998   1.389       .  A
C1997      H2004   1.074       .  S
C1998      S2000   1.806       .  S
S1999      H2002   1.407       .  S
S2000      H2001   1.399       .  S
C2005      C2006   1.423       .  A
C2005      C2010   1.425       .  A
C2006      C2007   1.407       .  A
C2006      H2015   1.085       .  S
C2007      C2008   1.404       .  A
C2007      S2011   1.803   1_655  S
C2008      C2009   1.404       .  A
C2009      C2010   1.402       .  A
C2009      H4188   1.082       .  S
C2010      S4184   1.799       .  S
S2011      H2014   1.405       .  S
S2012      C4182   1.801       .  S
S2012      H4185   1.397       .  S
H2013      S4184   1.395       .  S
H2016      C4181   1.081       .  S
C2017      C2018   1.407   1_655  A
C2017      C4194   1.417       .  A
C2018      C2019   1.388       .  A
C2018      H2027   1.076       .  S
C2019      C2020   1.405       .  A
C2019      S2023   1.810       .  S
C2020      C2021   1.406   1_455  A
C2021      C4194   1.410       .  A
C2021      H4200   1.083       .  S
C2022      C4189   1.418       .  A
C2022      C4193   1.411       .  A
C2022      S2024   1.804       .  S
S2023      H2026   1.405       .  S
S2024      H2025   1.408       .  S
H2028      C4193   1.083       .  S
C2029      C2030   1.411       .  A
C2029      C2034   1.406       .  A
C2030      C2031   1.401       .  A
C2030      H2039   1.083       .  S
C2031      C2032   1.410       .  A
C2031      S2035   1.799       .  S
C2032      C4205   1.415       .  A
C2033      C4204   1.415       .  A
C2033      C4206   1.404       .  A
C2033      H2040   1.084       .  S
C2034      C4205   1.403       .  A
C2034      S4208   1.803       .  S
S2035      H2038   1.406       .  S
S2036      C4206   1.803       .  S
S2036      H2037   1.406       .  S
C2041      C2042   1.398       .  A
C2041      C2046   1.422       .  A
C2042      C2043   1.408       .  A
C2042      H2051   1.083       .  S
C2043      C2044   1.425       .  A
C2043      S2047   1.806       .  S
C2044      C2045   1.398       .  A
C2045      C2046   1.402       .  A
C2045      H2052   1.083       .  S
C2046      S2048   1.804       .  S
S2047      H2050   1.407       .  S
S2048      H2049   1.407       .  S
C2053      C2054   1.410       .  A
C2053      C2058   1.417       .  A
C2054      C4227   1.412       .  A
C2054      H4235   1.082       .  S
C2055      C4226   1.410       .  A
C2055      C4228   1.420       .  A
C2055      S2059   1.804   1_655  S
C2056      C4227   1.421       .  A
C2056      C2057   1.395       .  A
C2057      C2058   1.395       .  A
C2057      H2064   1.084       .  S
C2058      S2060   1.817       .  S
S2059      H2062   1.404       .  S
S2060      H2061   1.407       .  S
H2063      C4226   1.082   1_455  S
C2065      C2066   1.413       .  A
C2065      C2070   1.418       .  A
C2066      C2067   1.390       .  A
C2066      H2075   1.073       .  S
C2067      C2068   1.400       .  A
C2067      S2071   1.814       .  S
C2068      C2069   1.406       .  A
C2069      C2070   1.404       .  A
C2069      H2076   1.084       .  S
C2070      S2072   1.802       .  S
S2071      H2074   1.406       .  S
S2072      H2073   1.407       .  S
C2077      C2078   1.408       .  A
C2077      C2082   1.412       .  A
C2078      C2079   1.396       .  A
C2078      H2087   1.083       .  S
C2079      C2080   1.410       .  A
C2080      C2081   1.401       .  A
C2081      C2082   1.388       .  A
C2081      H2088   1.085       .  S
C2082      S2084   1.802       .  S
S2083      H2086   1.404       .  S
S2084      H2085   1.407       .  S
C2089      C2090   1.406       .  A
C2089      C2094   1.419       .  A
C2090      C2091   1.392       .  A
C2090      H2099   1.077       .  S
C2091      C2092   1.411       .  A
C2091      S2095   1.805       .  S
C2092      C2093   1.403       .  A
C2093      C2094   1.411       .  A
C2093      H2100   1.083       .  S
C2094      S2096   1.805       .  S
S2095      H2098   1.403       .  S
S2096      H2097   1.407       .  S
C2101      C2102   1.410       .  A
C2101      C2106   1.413       .  A
C2102      C2103   1.406       .  A
C2102      H2111   1.082       .  S
C2103      C2104   1.412       .  A
C2103      S2107   1.800       .  S
C2104      C2105   1.407       .  A
C2105      C2106   1.399       .  A
C2105      H2112   1.081       .  S
C2106      S2108   1.812       .  S
S2107      H2110   1.404       .  S
S2108      H2109   1.407       .  S
C2113      C2114   1.402       .  A
C2113      C2118   1.426       .  A
C2114      C2115   1.386       .  A
C2114      H2123   1.082       .  S
C2115      C2116   1.409       .  A
C2115      S2119   1.803       .  S
C2116      C2117   1.398       .  A
C2117      C2118   1.402       .  A
C2117      H2124   1.084       .  S
C2118      S2120   1.802       .  S
S2119      H2122   1.404       .  S
S2120      H2121   1.401       .  S
C2125      C2126   1.408       .  A
C2125      C2130   1.384       .  A
C2126      C2127   1.412       .  A
C2126      H2135   1.083       .  S
C2127      C2128   1.423       .  A
C2127      S2131   1.804       .  S
C2128      C2129   1.425       .  A
C2129      C2130   1.386       .  A
C2129      H2136   1.072       .  S
C2130      S2132   1.802       .  S
S2131      H2134   1.407       .  S
S2132      H2133   1.406       .  S
C2137      C2138   1.410       .  A
C2137      C2142   1.429       .  A
C2138      C2139   1.404   1_565  A
C2138      H2147   1.083   1_565  S
C2139      C2140   1.410   1_545  A
C2140      C2141   1.391       .  A
C2141      C2142   1.394       .  A
C2141      H2148   1.083       .  S
C2142      S2144   1.808       .  S
S2143      H2146   1.405       .  S
S2144      H2145   1.408       .  S
C2149      C2150   1.415       .  A
C2149      C2154   1.419   1_455  A
C2150      C2151   1.399       .  A
C2150      H2159   1.074       .  S
C2151      C2152   1.407   1_455  A
C2151      S2155   1.813       .  S
C2152      C2153   1.409       .  A
C2153      C2154   1.408       .  A
C2153      H2160   1.078       .  S
C2154      S2156   1.802       .  S
S2155      H2158   1.406       .  S
S2156      H2157   1.407       .  S
C2161      C2162   1.390       .  A
C2161      C2166   1.411       .  A
C2162      C2163   1.393       .  A
C2162      H2171   1.084       .  S
C2163      C2164   1.427       .  A
C2164      C2165   1.399       .  A
C2165      C2166   1.399       .  A
C2165      H2172   1.079       .  S
C2166      S2168   1.803       .  S
S2167      H2170   1.407       .  S
S2168      H2169   1.401       .  S
C2173      C2174   1.554       .  S
C2173      C2179   1.522       .  S
C2173      C2177   1.523       .  S
C2173      C2661   1.518       .  S
C2174      H2181   1.082       .  S
C2174      C2175   1.387       .  D
C2175      C2176   1.547       .  S
C2175      C3235   1.521       .  S
C2176      C2180   1.546       .  S
C2176      C2178   1.562       .  S
C2176      H2182   1.108       .  S
C2177      H2183   1.087       .  S
C2177      C2178   1.356       .  D
C2178      C3247   1.474       .  S
C2179      H2184   1.074       .  S
C2179      C2180   1.351       .  D
C2180      C2229   1.496       .  S
C2185      C2186   1.547       .  S
C2185      C2191   1.518       .  S
C2185      C2189   1.525       .  S
C2185      C2646   1.512       .  S
C2186      H2193   1.086       .  S
C2186      C2187   1.385       .  D
C2187      C2188   1.546       .  S
C2187      C3223   1.506       .  S
C2188      C2192   1.551       .  S
C2188      C2190   1.559       .  S
C2188      H2194   1.101       .  S
C2189      H2195   1.088       .  S
C2189      C2190   1.351       .  D
C2190      C3211   1.473       .  S
C2191      H2196   1.066       .  S
C2191      C2192   1.350       .  D
C2192      C2224   1.502       .  S
C2197      C2198   1.552       .  S
C2197      C2203   1.527       .  S
C2197      C2201   1.532       .  S
C2197      C2650   1.514       .  S
C2198      H2205   1.086       .  S
C2198      C2199   1.375       .  D
C2199      C2200   1.531       .  S
C2199      C3187   1.497       .  S
C2200      C2204   1.537       .  S
C2200      C2202   1.548       .  S
C2200      H2206   1.099       .  S
C2201      H2207   1.085       .  S
C2201      C2202   1.369       .  D
C2202      C3199   1.484       .  S
C2203      H2208   1.076       .  S
C2203      C2204   1.354       .  D
C2204      C2228   1.494       .  S
O2209      C2224   1.275       .  A
O2209     Al2217   1.971       .  S
C2210      C2621   1.526       .  S
C2210      O2220   1.273       .  A
C2210      O2211   1.262       .  A
O2211     Al2213   1.914       .  S
O2212      C2214   1.276       .  A
O2212     Al2213   1.968       .  S
Al2213     O2221   1.963       .  S
Al2213     O2223   1.926       .  S
Al2213     O2222   1.784       .  S
C2214      C2609   1.531       .  S
C2214      O2227   1.262       .  A
O2215      C2225   1.274       .  A
O2215     Al2217   1.965       .  S
O2216      C2229   1.274       .  A
O2216     Al2226   1.962       .  S
Al2217     O2230   1.923       .  S
Al2217     O2227   1.917       .  S
Al2217     O2222   1.784       .  S
O2218      C2225   1.261       .  A
O2218     Al2226   1.908       .  S
O2219      C2228   1.262       .  A
O2219     Al2226   1.916       .  S
O2220     Al2226   1.955       .  S
O2221      C2228   1.273       .  A
O2222     Al2226   1.783       .  S
O2223      C2224   1.262       .  A
C2225      C2633   1.527       .  S
C2229      O2230   1.264       .  A
N2231      C2236   1.347   1_554  A
N2231      C2235   1.342   1_554  A
N2231      H2263   1.042       .  S
N2232      C2239   1.351       .  A
N2232      C2240   1.346       .  A
N2233      C2238   1.354       .  A
N2233      C2237   1.364       .  A
N2233      H3350   1.037       .  S
N2234      C2241   1.344       .  A
N2234      C2242   1.338       .  A
C2235      C2243   1.383       .  A
C2235      C2251   1.394       .  A
C2236      C2252   1.413       .  A
C2236      C2244   1.392       .  A
C2237      C2245   1.394       .  A
C2237      C2254   1.438       .  A
C2238      C2253   1.419   1_565  A
C2238      C2246   1.380       .  A
C2239      C2251   1.410   1_554  A
C2239      C2247   1.381       .  A
C2240      C3340   1.428       .  A
C2240      C2248   1.393       .  A
C2241      C2249   1.385       .  A
C2241      C2252   1.403   1_554  A
C2242      C2250   1.388       .  A
C2242      C3339   1.401       .  A
C2243      C2244   1.368       .  A
C2243      H2255   1.083       .  S
C2244      H2256   1.077       .  S
C2245      C2246   1.357       .  A
C2245      H2257   1.072       .  S
C2246      H2258   1.082       .  S
C2247      C2248   1.383       .  A
C2247      H2259   1.080       .  S
C2248      H2260   1.079       .  S
C2249      C2250   1.385       .  A
C2249      H2261   1.083       .  S
C2250      H2262   1.082       .  S
C2251      C3250   1.493       .  S
C2252      C3226   1.476       .  S
C2253      C3328   1.401       .  A
C2253      C3166   1.472       .  S
C2254      C3326   1.423       .  A
C2254      C3175   1.506       .  S
H2264      N3319   1.040       .  S
C2265      C2266   1.548       .  S
C2265      C2271   1.510       .  S
C2265      C2269   1.532   1_545  S
C2265      C2490   1.509       .  S
C2266      H2273   1.083       .  S
C2266      C2267   1.386       .  D
C2267      C2268   1.544       .  S
C2267      C3151   1.502       .  S
C2268      C2272   1.544       .  S
C2268      C2270   1.571       .  S
C2268      H2274   1.107       .  S
C2269      H3361   1.087       .  S
C2269      C2270   1.351   1_565  D
C2270      C3178   1.494   1_545  S
C2271      H2276   1.059       .  S
C2271      C2272   1.345       .  D
C2272      C2320   1.495       .  S
H2275      C3355   1.087       .  S
C2277      C2278   1.567       .  S
C2277      C2283   1.519       .  S
C2277      C2281   1.539       .  S
C2277      C2486   1.541       .  S
C2278      H2285   1.084       .  S
C2278      C2279   1.401       .  D
C2279      C2280   1.545       .  S
C2279      C3139   1.509       .  S
C2280      C2284   1.551       .  S
C2280      C2282   1.542       .  S
C2280      H2286   1.100       .  S
C2281      H2287   1.087       .  S
C2281      C2282   1.351       .  D
C2282      C3130   1.505       .  S
C2283      H2288   1.074       .  S
C2283      C2284   1.357       .  D
C2284      C2316   1.515       .  S
C2289      C2290   1.535       .  S
C2289      C2295   1.522       .  S
C2289      C2293   1.545   1_655  S
C2289      C2501   1.530       .  S
C2290      H2297   1.085       .  S
C2290      C2291   1.383       .  D
C2291      C2292   1.546       .  S
C2291      C3163   1.480       .  S
C2292      C2296   1.551       .  S
C2292      C2294   1.544   1_655  S
C2292      H2298   1.108       .  S
C2293      H2299   1.087       .  S
C2293      C2294   1.359       .  D
C2294      C3115   1.499       .  S
C2295      H2300   1.077       .  S
C2295      C2296   1.362       .  D
C2296      C2321   1.501       .  S
O2301      C2316   1.278       .  A
O2301     Al2309   1.969       .  S
C2302      C2449   1.516       .  S
C2302      O2312   1.270       .  A
C2302      O2303   1.259       .  A
O2303     Al2305   1.908       .  S
O2304      C2306   1.267       .  A
O2304     Al2305   1.964       .  S
Al2305     O2313   1.957       .  S
Al2305     O2315   1.935       .  S
Al2305     O2314   1.792       .  S
C2306      C2461   1.526       .  S
C2306      O2319   1.263       .  A
O2307      C2317   1.271       .  A
O2307     Al2309   1.983       .  S
O2308      C2321   1.272       .  A
O2308     Al2318   1.941       .  S
Al2309     O2322   1.935       .  S
Al2309     O2319   1.880       .  S
Al2309     O2314   1.771       .  S
O2310      C2317   1.261       .  A
O2310     Al2318   1.889       .  S
O2311      C2320   1.262       .  A
O2311     Al2318   1.919       .  S
O2312     Al2318   1.946       .  S
O2313      C2320   1.276       .  A
O2314     Al2318   1.775       .  S
O2315      C2316   1.268       .  A
C2317      C2473   1.536       .  S
C2321      O2322   1.268       .  A
N2323      C2328   1.350   1_554  A
N2323      C2327   1.346   1_554  A
N2323      H2355   1.042       .  S
N2324      C2331   1.339       .  A
N2324      C2332   1.347       .  A
N2325      C2330   1.350       .  A
N2325      C2329   1.350       .  A
N2326      C2333   1.350       .  A
N2326      C2334   1.347       .  A
C2327      C2335   1.389       .  A
C2327      C2343   1.410       .  A
C2328      C2344   1.407       .  A
C2328      C2336   1.385       .  A
C2329      C2337   1.376       .  A
C2329      C2346   1.404   1_655  A
C2330      C2345   1.416       .  A
C2330      C2338   1.393       .  A
C2331      C2343   1.407   1_554  A
C2331      C2339   1.387       .  A
C2332      C2340   1.382       .  A
C2333      C2341   1.383       .  A
C2333      C2344   1.417   1_554  A
C2334      C2342   1.385       .  A
C2335      C2336   1.374       .  A
C2335      H2347   1.082       .  S
C2336      H2348   1.080       .  S
C2337      C2338   1.361       .  A
C2337      H2349   1.079       .  S
C2338      H2350   1.073       .  S
C2339      C2340   1.390       .  A
C2339      H2351   1.081       .  S
C2341      C2342   1.384       .  A
C2341      H2353   1.075       .  S
C2342      H2354   1.081       .  S
C2343      C3202   1.471       .  S
C2344      C3238   1.499       .  S
C2345      C3142   1.495       .  S
C2346      C3118   1.496       .  S
N2357      C2362   1.344   1_554  A
N2357      C2361   1.347   1_554  A
N2357      H2389   1.045       .  S
N2358      C2365   1.344       .  A
N2358      C2366   1.336       .  A
N2359      C2364   1.350       .  A
N2359      C2363   1.348       .  A
N2359      H2390   1.044       .  S
N2360      C2367   1.349       .  A
N2360      C2368   1.350       .  A
C2361      C2369   1.380       .  A
C2361      C2377   1.405       .  A
C2362      C2378   1.414       .  A
C2362      C2370   1.391       .  A
C2363      C2371   1.392       .  A
C2363      C2380   1.413       .  A
C2364      C2379   1.402       .  A
C2364      C2372   1.382       .  A
C2365      C2377   1.409   1_554  A
C2365      C2373   1.386       .  A
C2366      C2380   1.401       .  A
C2366      C2374   1.385       .  A
C2367      C2375   1.391       .  A
C2367      C2378   1.428   1_554  A
C2368      C2376   1.380       .  A
C2368      C2379   1.410       .  A
C2369      C2370   1.384       .  A
C2369      H2381   1.082       .  S
C2370      H2382   1.074       .  S
C2371      C2372   1.366       .  A
C2371      H2383   1.081       .  S
C2372      H2384   1.081       .  S
C2373      C2374   1.390       .  A
C2373      H2385   1.081       .  S
C2374      H2386   1.082       .  S
C2375      C2376   1.391       .  A
C2375      H2387   1.078       .  S
C2376      H2388   1.082       .  S
C2377      C3190   1.494       .  S
C2378      C3214   1.518       .  S
C2379      C3127   1.500       .  S
C2380      C3154   1.466       .  S
C2391      C2392   1.544       .  S
C2391      C2397   1.519   1_655  S
C2391      C2395   1.543       .  S
C2391      C2708   1.528       .  S
C2392      H2399   1.088       .  S
C2393      C2394   1.554       .  S
C2393      C3094   1.497       .  S
C2394      C2398   1.550       .  S
C2394      C2396   1.559       .  S
C2394      H2400   1.108       .  S
C2395      H2401   1.083       .  S
C2396      C3103   1.508       .  S
C2397      H2402   1.069       .  S
C2398      C2446   1.496       .  S
C2403      C2404   1.541       .  S
C2403      C2409   1.525       .  S
C2403      C2407   1.541       .  S
C2403      C2719   1.524       .  S
C2404      H2411   1.088       .  S
C2404      C2405   1.348       .  D
C2405      C2406   1.554       .  S
C2405      C3067   1.497       .  S
C2406      C2410   1.556       .  S
C2406      C2408   1.557       .  S
C2406      H2412   1.108       .  S
C2407      H2413   1.084       .  S
C2407      C2408   1.386       .  D
C2408      C3082   1.503       .  S
C2409      H2414   1.073       .  S
C2409      C2410   1.359       .  D
C2410      C2447   1.506       .  S
C2415      C2416   1.539       .  S
C2415      C2421   1.527   1_545  S
C2415      C2419   1.552       .  S
C2415      C2704   1.521       .  S
C2416      H2423   1.083       .  S
C2416      C3503   1.368       .  D
C2417      C2418   1.556       .  S
C2417      C3502   1.366       .  D
C2417      C3043   1.484       .  S
C2418      C2422   1.532       .  S
C2418      C2420   1.540       .  S
C2418      H2424   1.110       .  S
C2419      H2425   1.085       .  S
C2419      C3506   1.376       .  D
C2420      C3505   1.378       .  D
C2420      C3055   1.506       .  S
C2421      H2426   1.076       .  S
C2421      C3508   1.353       .  D
C2422      C3507   1.353       .  D
C2422      C2442   1.495       .  S
O2427      C2442   1.266       .  A
O2427     Al2435   1.926       .  S
C2428      C2679   1.530       .  S
C2428      O2438   1.259       .  A
C2428      O2429   1.270       .  A
O2429     Al2431   1.966       .  S
O2430      C2432   1.261       .  A
O2430     Al2431   1.899       .  S
Al2431     O2439   1.933       .  S
Al2431     O2441   1.953       .  S
Al2431     O2440   1.785       .  S
C2432      C2667   1.531       .  S
C2432      O2445   1.271       .  A
O2433      C2443   1.263       .  A
O2433     Al2435   1.903       .  S
O2434      C2447   1.265       .  A
O2434     Al2444   1.929       .  S
Al2435     O2448   1.972       .  S
Al2435     O2445   1.968       .  S
Al2435     O2440   1.785       .  S
O2436      C2443   1.268       .  A
O2436     Al2444   1.945       .  S
O2437      C2446   1.269       .  A
O2437     Al2444   1.942       .  S
O2438     Al2444   1.882       .  S
O2439      C2446   1.265       .  A
O2440     Al2444   1.781       .  S
O2441      C2442   1.272       .  A
C2443      C2691   1.527       .  S
C2447      O2448   1.274       .  A
C2449      C2450   1.537       .  S
C2449      C2455   1.512       .  S
C2449      C2453   1.541       .  S
C2450      H2457   1.076       .  S
C2450      C2451   1.389       .  D
C2451      C2452   1.566       .  S
C2451      C3034   1.519       .  S
C2452      C2456   1.543       .  S
C2452      C2454   1.551       .  S
C2452      H2458   1.103       .  S
C2453      H2459   1.086       .  S
C2453      C2454   1.366       .  D
C2454      C3019   1.497       .  S
C2455      H2460   1.073       .  S
C2455      C2456   1.344       .  D
C2456      C2500   1.492       .  S
C2461      C2462   1.541       .  S
C2461      C2467   1.518       .  S
C2461      C2465   1.560       .  S
C2462      H2469   1.089       .  S
C2462      C2463   1.344       .  D
C2463      C2464   1.533       .  S
C2463      C2998   1.488       .  S
C2464      C2468   1.530       .  S
C2464      C2466   1.547       .  S
C2464      H2470   1.101       .  S
C2465      H2471   1.084       .  S
C2465      C2466   1.399       .  D
C2466      C3007   1.498       .  S
C2467      H2472   1.075       .  S
C2467      C2468   1.354       .  D
C2468      C2504   1.483       .  S
C2473      C2474   1.543       .  S
C2473      C2479   1.526       .  S
C2473      C2477   1.539       .  S
C2474      H2481   1.087       .  S
C2474      C2475   1.359       .  D
C2475      C2476   1.544       .  S
C2475      C2983   1.493       .  S
C2476      C2480   1.559       .  S
C2476      C2478   1.559       .  S
C2476      H2482   1.109       .  S
C2477      H2483   1.086       .  S
C2477      C2478   1.382       .  D
C2478      C2971   1.496       .  S
C2479      H2484   1.068       .  S
C2479      C2480   1.361       .  D
C2480      C2505   1.514       .  S
O2485      C2500   1.266       .  A
O2485     Al2493   1.936       .  S
C2486      O2496   1.267       .  A
O2487     Al2489   1.951       .  S
O2488      C3576   1.254       .  A
O2488     Al2489   1.856       .  S
Al2489     O2497   1.882       .  S
Al2489     O2499   1.933       .  S
Al2489     O2498   1.785       .  S
C2490      O3574   1.255   1_545  A
C2490      O2503   1.272       .  A
O2491     Al2493   1.882       .  S
O2492      C3591   1.273       .  A
O2492     Al2502   1.956       .  S
Al2493     O2506   1.951       .  S
Al2493     O2503   1.963       .  S
Al2493     O3584   1.781   1_545  S
O2494      C3587   1.269       .  A
O2494     Al2502   1.961       .  S
O2495      C2504   1.279       .  A
O2495     Al2502   1.970       .  S
O2496     Al2502   1.927       .  S
O2498     Al3579   1.779       .  S
O2499      C3586   1.266       .  A
C2500      O3585   1.268   1_545  A
C2501      O3580   1.269       .  A
C2505      O3578   1.274   1_545  A
N2507      C2512   1.348       .  A
N2507      C2511   1.348       .  A
N2507      H2539   1.043       .  S
N2508      C2515   1.344       .  A
N2508      C2516   1.343       .  A
N2509      C2514   1.347       .  A
N2509      C2513   1.349       .  A
N2509      H2540   1.044       .  S
N2510      C2517   1.343       .  A
N2510      C2518   1.346       .  A
C2511      C2519   1.383       .  A
C2511      C2527   1.406       .  A
C2512      C2528   1.411       .  A
C2512      C2520   1.391       .  A
C2513      C2521   1.389       .  A
C2513      C2530   1.409       .  A
C2514      C2529   1.407       .  A
C2514      C2522   1.384       .  A
C2515      C2527   1.412       .  A
C2515      C2523   1.386       .  A
C2516      C2530   1.407       .  A
C2516      C2524   1.386       .  A
C2517      C2525   1.388       .  A
C2517      C2528   1.412       .  A
C2518      C2526   1.384       .  A
C2518      C2529   1.409       .  A
C2519      C2520   1.373       .  A
C2519      H2531   1.083       .  S
C2520      H2532   1.080       .  S
C2521      C2522   1.361       .  A
C2521      H2533   1.080       .  S
C2522      H2534   1.077       .  S
C2523      C2524   1.392       .  A
C2525      C2526   1.392       .  A
C2525      H2537   1.082       .  S
C2526      H2538   1.081       .  S
C2527      C2974   1.491       .  S
C2528      C3031   1.480       .  S
C2529      C3070   1.498       .  S
C2530      C3106   1.479       .  S
N2541      C2546   1.336       .  A
N2541      C2545   1.342       .  A
N2541      H2573   1.046       .  S
N2542      C2549   1.350       .  A
N2542      C2550   1.342       .  A
N2543      C2548   1.355       .  A
N2543      C2547   1.355       .  A
N2543      H2574   1.040       .  S
N2544      C2551   1.351       .  A
N2544      C2552   1.337       .  A
C2545      C2553   1.387       .  A
C2545      C2561   1.388       .  A
C2546      C2562   1.382       .  A
C2546      C2554   1.385       .  A
C2547      C2555   1.379       .  A
C2547      C2564   1.411       .  A
C2548      C2563   1.431       .  A
C2548      C2556   1.396       .  A
C2549      C2561   1.413       .  A
C2549      C2557   1.388       .  A
C2550      C2564   1.407       .  A
C2550      C2558   1.382       .  A
C2551      C2559   1.378       .  A
C2551      C2562   1.393       .  A
C2552      C2560   1.390       .  A
C2552      C2563   1.415       .  A
C2553      C2554   1.364       .  A
C2553      H2565   1.083       .  S
C2554      H2566   1.083       .  S
C2555      C2556   1.365       .  A
C2555      H2567   1.083       .  S
C2556      H2568   1.074       .  S
C2557      C2558   1.388       .  A
C2557      H3655   1.078       .  S
C2558      H3656   1.081       .  S
C2559      C2560   1.382       .  A
C2559      H2571   1.083       .  S
C2560      H2572   1.073       .  S
C2561      C3046   1.504       .  S
C2562      C3079   1.475       .  S
C2563      C3010   1.487       .  S
C2564      C2986   1.501       .  S
H2569      C3643   1.078       .  S
H2570      C3644   1.081       .  S
N2575      C2580   1.356       .  A
N2575      C2579   1.357       .  A
N2575      H2607   1.044       .  S
N2576      C2583   1.350       .  A
N2576      C2584   1.349       .  A
N2577      C2582   1.352       .  A
N2577      C2581   1.351       .  A
N2577      H2608   1.044       .  S
N2578      C2585   1.347       .  A
N2578      C2586   1.353       .  A
C2579      C2587   1.385       .  A
C2579      C2595   1.418       .  A
C2580      C2596   1.415       .  A
C2580      C2588   1.389       .  A
C2581      C2589   1.388       .  A
C2581      C2598   1.413       .  A
C2582      C2597   1.408       .  A
C2582      C2590   1.386       .  A
C2583      C2595   1.419       .  A
C2583      C2591   1.381       .  A
C2584      C2598   1.421       .  A
C2584      C2592   1.384       .  A
C2585      C2593   1.388       .  A
C2585      C2596   1.416       .  A
C2586      C2594   1.385       .  A
C2586      C2597   1.415       .  A
C2587      C2588   1.359       .  A
C2587      H2599   1.080       .  S
C2588      H2600   1.082       .  S
C2589      C2590   1.369       .  A
C2589      H2601   1.082       .  S
C2590      H2602   1.083       .  S
C2591      C2592   1.384       .  A
C2593      C2594   1.378       .  A
C2593      H3691   1.082       .  S
C2594      H3692   1.078       .  S
C2595      C3091   1.520       .  S
C2596      C3058   1.488       .  S
C2597      C3022   1.507       .  S
C2598      C2995   1.509       .  S
H2605      C3679   1.081       .  S
H2606      C3680   1.078       .  S
C2609      C2610   1.544       .  S
C2609      C2615   1.523       .  S
C2609      C2613   1.540       .  S
C2610      H2617   1.085       .  S
C2610      C2611   1.380       .  D
C2611      C2612   1.556       .  S
C2611      C2947   1.498       .  S
C2612      C2616   1.545       .  S
C2612      C2614   1.540       .  S
C2612      H2618   1.109       .  S
C2613      H2619   1.087       .  S
C2613      C2614   1.371       .  D
C2614      C2962   1.490       .  S
C2615      H2620   1.068       .  S
C2615      C2616   1.354       .  D
C2616      C2664   1.499       .  S
C2621      C2622   1.546       .  S
C2621      C2627   1.525       .  S
C2621      C2625   1.539       .  S
C2622      H2629   1.084       .  S
C2622      C2623   1.382       .  D
C2623      C2624   1.553       .  S
C2623      C2935   1.504       .  S
C2624      C2628   1.531       .  S
C2624      C2626   1.542       .  S
C2624      H2630   1.109       .  S
C2625      H2631   1.086       .  S
C2625      C2626   1.370       .  D
C2626      C2923   1.489       .  S
C2627      H2632   1.066       .  S
C2627      C2628   1.354       .  D
C2628      C2660   1.495       .  S
C2633      C2634   1.543       .  S
C2633      C2639   1.531       .  S
C2633      C2637   1.534       .  S
C2634      H2641   1.085       .  S
C2634      C2635   1.377       .  D
C2635      C2636   1.554       .  S
C2635      C2899   1.500       .  S
C2636      C2640   1.527       .  S
C2636      C2638   1.532       .  S
C2636      H2642   1.109       .  S
C2637      H2643   1.087       .  S
C2637      C2638   1.368       .  D
C2638      C2911   1.471       .  S
C2639      H2644   1.067       .  S
C2639      C2640   1.358       .  D
C2640      C2665   1.488       .  S
O2645      C2660   1.269       .  A
O2645     Al2653   1.932       .  S
C2646      O2656   1.257       .  A
C2646      O2647   1.267       .  A
O2647     Al3735   1.956       .  S
O2648      C2650   1.261       .  A
Al2649     O3733   1.947   1_545  S
Al2649     O3743   1.945   1_545  S
C2650      O2663   1.267       .  A
O2651      C2661   1.263       .  A
O2651     Al3739   1.898       .  S
O2652      C2665   1.261       .  A
Al2653     O3737   1.909   1_545  S
Al2653     O3752   1.949   1_545  S
Al2653     O2663   1.937       .  S
Al2653     O3744   1.779   1_545  S
O2654      C2661   1.269       .  A
O2655      C2664   1.271       .  A
O2655     Al2662   1.946       .  S
O2656     Al2662   1.871       .  S
O2657      C2664   1.267       .  A
O2657     Al3735   1.936       .  S
O2658     Al3739   1.777       .  S
O2659      C2660   1.272       .  A
C2665      O2666   1.272       .  A
O2666     Al3739   1.953       .  S
C2667      C2668   1.561       .  S
C2667      C2673   1.525       .  S
C2667      C2671   1.533       .  S
C2668      H2675   1.085       .  S
C2668      C2669   1.388       .  D
C2669      C3756   1.531       .  S
C2669      C2875   1.496       .  S
C2670      C3755   1.527   1_545  S
C2670      C2674   1.545       .  S
C2670      C3758   1.554   1_545  S
C2670      H2676   1.103       .  S
C2671      H2677   1.085       .  S
C2671      C2672   1.358       .  D
C2672      C3756   1.552       .  S
C2672      C2887   1.493       .  S
C2673      H2678   1.057       .  S
C2673      C3760   1.353       .  D
C2674      C3759   1.356   1_545  D
C2674      C2722   1.515       .  S
C2679      C2680   1.539       .  S
C2679      C2685   1.518       .  S
C2679      C2683   1.546       .  S
C2680      H2687   1.084       .  S
C2680      C2681   1.388       .  D
C2681      C2854   1.493       .  S
C2682      C2686   1.554       .  S
C2682      H2688   1.103       .  S
C2683      H2689   1.087       .  S
C2683      C2684   1.356       .  D
C2684      C2863   1.503       .  S
C2685      H2690   1.077       .  S
C2686      C2718   1.509       .  S
C2691      C2692   1.545       .  S
C2691      C2697   1.524       .  S
C2691      C2695   1.544       .  S
C2692      H2699   1.083       .  S
C2692      C2693   1.388       .  D
C2693      C2694   1.549       .  S
C2693      C2839   1.495       .  S
C2694      C2698   1.544       .  S
C2694      C2696   1.558       .  S
C2694      H2700   1.107       .  S
C2695      H2701   1.087       .  S
C2695      C2696   1.361       .  D
C2696      C2827   1.510       .  S
C2697      H2702   1.078       .  S
C2697      C2698   1.355       .  D
C2698      C2723   1.504       .  S
O2703      C2718   1.272       .  A
O2703     Al2711   1.941       .  S
C2704      O2714   1.269       .  A
C2704      O2705   1.255       .  A
O2705     Al2707   1.893       .  S
O2706      C2708   1.273       .  A
O2706     Al2707   1.980       .  S
Al2707     O2715   1.997       .  S
Al2707     O2717   1.939       .  S
Al2707     O2716   1.786       .  S
C2708      O2721   1.261       .  A
O2709      C2719   1.266       .  A
O2709     Al2711   1.967       .  S
O2710      C2723   1.276       .  A
O2710     Al2720   1.963       .  S
Al2711     O2724   1.930       .  S
Al2711     O2721   1.871       .  S
Al2711     O2716   1.783       .  S
O2712      C2719   1.259       .  A
O2712     Al2720   1.875       .  S
O2713      C2722   1.264       .  A
O2713     Al2720   1.914       .  S
O2714     Al2720   1.961       .  S
O2715      C2722   1.285       .  A
O2716     Al2720   1.773       .  S
O2717      C2718   1.269       .  A
C2723      O2724   1.269       .  A
N2725      C2730   1.362       .  A
N2725      C2729   1.356       .  A
N2725      H2757   1.038       .  S
N2726      C2733   1.344       .  A
N2726      C2734   1.351       .  A
N2727      C2732   1.344       .  A
N2727      C2731   1.349       .  A
N2727      H2758   1.039       .  S
N2728      C2735   1.352       .  A
N2728      C2736   1.352       .  A
C2729      C2737   1.388       .  A
C2729      C2745   1.428       .  A
C2730      C2746   1.426       .  A
C2730      C2738   1.385       .  A
C2731      C2739   1.383       .  A
C2731      C2748   1.404       .  A
C2732      C2747   1.408       .  A
C2732      C2740   1.389       .  A
C2733      C2745   1.407       .  A
C2734      C2748   1.409       .  A
C2735      C2743   1.383       .  A
C2735      C2746   1.417       .  A
C2736      C2744   1.383       .  A
C2736      C2747   1.419       .  A
C2737      C2738   1.353       .  A
C2737      H2749   1.076       .  S
C2738      H2750   1.077       .  S
C2739      C2740   1.375       .  A
C2739      H2751   1.081       .  S
C2740      H2752   1.082       .  S
C2741      C2742   1.378       .  A
C2741      H2753   1.082       .  S
C2742      H2754   1.083       .  S
C2743      C2744   1.384       .  A
C2743      H2755   1.079       .  S
C2744      H2756   1.078       .  S
C2745      C2851   1.481       .  S
C2746      C2830   1.517       .  S
C2747      C2959   1.489       .  S
N2759      C2764   1.345       .  A
N2759      C2763   1.350       .  A
N2759      H2791   1.043       .  S
N2760      C2767   1.347   1_545  A
N2760      C2768   1.342   1_545  A
N2761      C2766   1.353       .  A
N2761      C2765   1.346       .  A
N2761      H2792   1.039       .  S
N2762      C2769   1.344       .  A
N2762      C2770   1.346       .  A
C2763      C2771   1.385       .  A
C2763      C2779   1.406       .  A
C2764      C2780   1.403       .  A
C2764      C2772   1.388       .  A
C2765      C2773   1.386       .  A
C2765      C2782   1.411   1_545  A
C2766      C2781   1.408       .  A
C2766      C2774   1.384       .  A
C2767      C2779   1.405   1_565  A
C2767      C3861   1.383       .  A
C2768      C2782   1.408       .  A
C2768      C3862   1.388       .  A
C2769      C2777   1.385       .  A
C2769      C2780   1.402       .  A
C2770      C2778   1.387       .  A
C2770      C2781   1.411       .  A
C2771      C2772   1.367       .  A
C2771      H2783   1.080       .  S
C2772      H2784   1.082       .  S
C2773      C2774   1.373       .  A
C2773      H2785   1.082       .  S
C2774      H2786   1.081       .  S
C2775      C3853   1.384       .  A
C2775      C2776   1.386       .  A
C2775      H2787   1.082       .  S
C2776      C3854   1.388       .  A
C2776      H2788   1.081       .  S
C2777      C2778   1.382       .  A
C2777      H2789   1.082       .  S
C2778      H2790   1.082       .  S
C2779      C2890   1.489   1_545  S
C2780      C2842   1.468       .  S
C2781      C2938   1.486       .  S
C2782      C4000   1.472       .  S
N2793      C2798   1.350       .  A
N2793      C2797   1.346       .  A
N2793      H2825   1.040       .  S
N2794      C2801   1.345       .  A
N2794      C2802   1.348       .  A
N2795      C2800   1.354       .  A
N2795      C2799   1.355       .  A
N2795      H2826   1.042       .  S
N2796      C2803   1.348       .  A
N2796      C2804   1.346       .  A
C2797      C2805   1.388       .  A
C2797      C2813   1.410   1_655  A
C2798      C2814   1.407       .  A
C2798      C2806   1.385       .  A
C2799      C2807   1.379       .  A
C2799      C2816   1.414   1_655  A
C2800      C2815   1.418       .  A
C2800      C2808   1.390       .  A
C2801      C2813   1.414       .  A
C2802      C2816   1.411       .  A
C2803      C3897   1.384       .  A
C2803      C2814   1.412       .  A
C2804      C3898   1.386   1_545  A
C2804      C2815   1.407       .  A
C2805      C2806   1.373       .  A
C2805      H2817   1.083       .  S
C2806      H2818   1.080       .  S
C2807      C2808   1.356       .  A
C2807      H2819   1.076       .  S
C2808      H2820   1.074       .  S
C2809      C2810   1.389       .  A
C2809      H2821   1.082       .  S
C2810      H2822   1.082       .  S
C2811      C3889   1.382       .  A
C2811      C2812   1.383       .  A
C2811      H2823   1.076       .  S
C2812      C3890   1.386       .  A
C2812      H2824   1.082       .  S
C2814      C4036   1.494       .  S
C2815      C2878   1.484       .  S
C2816      C2866   1.502       .  S
C2827      C2828   1.409       .  A
C2827      C2832   1.409       .  A
C2828      C2829   1.405       .  A
C2828      H2837   1.082       .  S
C2829      C2830   1.417       .  A
C2829      S2833   1.804       .  S
C2830      C2831   1.417       .  A
C2831      C2832   1.413       .  A
C2831      H2838   1.084       .  S
C2832      S2834   1.801       .  S
S2833      H2836   1.402       .  S
S2834      H2835   1.406       .  S
C2839      C2840   1.412       .  A
C2839      C2844   1.417       .  A
C2840      C2841   1.386       .  A
C2840      H2849   1.077       .  S
C2841      C2842   1.396       .  A
C2841      S2845   1.805       .  S
C2842      C2843   1.405       .  A
C2843      C2844   1.401       .  A
C2843      H2850   1.084       .  S
C2844      S2846   1.803       .  S
S2845      H2848   1.407       .  S
S2846      H2847   1.407       .  S
C2851      C2852   1.401       .  A
C2852      C2853   1.392       .  A
C2852      H2861   1.085       .  S
C2853      S2857   1.804       .  S
C2854      C2855   1.410       .  A
C2855      C2856   1.398       .  A
C2855      H2862   1.080       .  S
C2856      S2858   1.804       .  S
S2857      H2860   1.407       .  S
S2858      H2859   1.400       .  S
C2863      C2868   1.409       .  A
C2864      C2865   1.402       .  A
C2864      H2873   1.082       .  S
C2865      C2866   1.411       .  A
C2865      S2869   1.799       .  S
C2866      C2867   1.417       .  A
C2867      H2874   1.084   1_455  S
C2868      S2870   1.802       .  S
S2869      H2872   1.406       .  S
S2870      H2871   1.406       .  S
C2875      C3962   1.407       .  A
C2875      C2880   1.416       .  A
C2876      C3961   1.404   1_565  A
C2876      C2877   1.402       .  A
C2876      H2885   1.082       .  S
C2877      C2878   1.416   1_565  A
C2877      S2881   1.799       .  S
C2878      C2879   1.396       .  A
C2879      C3966   1.395       .  A
C2879      H2886   1.084       .  S
C2880      C3965   1.395       .  A
C2880      S2882   1.813       .  S
S2881      H2884   1.401       .  S
S2882      H2883   1.406       .  S
C2887      C3974   1.400       .  A
C2887      C2892   1.421       .  A
C2888      C3973   1.398       .  A
C2888      C2889   1.401       .  A
C2888      H2897   1.083       .  S
C2889      C2890   1.418       .  A
C2889      S2893   1.803   1_565  S
C2890      C2891   1.398       .  A
C2891      C3978   1.399       .  A
C2891      H3984   1.084       .  S
C2892      C3977   1.399       .  A
C2892      S2894   1.798       .  S
S2893      H2896   1.407       .  S
S2894      H2895   1.405       .  S
H2898      C3977   1.084       .  S
C2899      C2900   1.405       .  A
C2899      C2904   1.420       .  A
C2900      C2901   1.395       .  A
C2900      H2909   1.078       .  S
C2901      C2902   1.412       .  A
C2901      S2905   1.812       .  S
C2902      C2903   1.405       .  A
C2903      C2904   1.409       .  A
C2904      S2906   1.802       .  S
S2905      H2908   1.407       .  S
S2906      H2907   1.407       .  S
C2911      C2912   1.406       .  A
C2911      C2916   1.409       .  A
C2912      C2913   1.393       .  A
C2912      H2921   1.083       .  S
C2913      C2914   1.408       .  A
C2913      S2917   1.800       .  S
C2914      C2915   1.405       .  A
C2914      C3868   1.472       .  S
C2915      C2916   1.391       .  A
C2915      H2922   1.085       .  S
C2916      S2918   1.806       .  S
S2917      H2920   1.404       .  S
S2918      H2919   1.406       .  S
C2923      C2924   1.401       .  A
C2923      C2928   1.424       .  A
C2924      C2925   1.394       .  A
C2924      H2933   1.084       .  S
C2925      C2926   1.414       .  A
C2925      S2929   1.805       .  S
C2926      C2927   1.399       .  A
C2927      C2928   1.402       .  A
C2927      H2934   1.084       .  S
C2928      S2930   1.802       .  S
S2930      H2931   1.404       .  S
C2935      C2936   1.407       .  A
C2935      C2940   1.420       .  A
C2936      C2937   1.388       .  A
C2936      H2945   1.072       .  S
C2937      C2938   1.407       .  A
C2937      S2941   1.814       .  S
C2938      C2939   1.406       .  A
C2939      C2940   1.409       .  A
C2939      H2946   1.082       .  S
C2940      S2942   1.801       .  S
S2941      H2944   1.407       .  S
S2942      H2943   1.407       .  S
C2947      C2948   1.402       .  A
C2947      C2952   1.415       .  A
C2948      C2949   1.393       .  A
C2948      H2957   1.075       .  S
C2949      C2950   1.414       .  A
C2949      S2953   1.800       .  S
C2950      C2951   1.410       .  A
C2950      C3900   1.500       .  S
C2951      C2952   1.409       .  A
C2951      H4044   1.081       .  S
C2952      S2954   1.802       .  S
S2953      H2956   1.397       .  S
S2954      H2955   1.407       .  S
H2958      C4037   1.081       .  S
C2959      C2960   1.409       .  A
C2959      C2964   1.412       .  A
C2960      C2961   1.398       .  A
C2960      H2969   1.085       .  S
C2961      C2962   1.411       .  A
C2961      S2965   1.806       .  S
C2962      C2963   1.411       .  A
C2963      C2964   1.404       .  A
C2963      H2970   1.083       .  S
C2964      S2966   1.806       .  S
S2965      H2968   1.407       .  S
S2966      H2967   1.401       .  S
C2971      C2972   1.413       .  A
C2971      C2976   1.411       .  A
C2973      C2974   1.410       .  A
C2973      S2977   1.803       .  S
C2975      C2976   1.398   1_455  A
C2975      H2982   1.083       .  S
C2976      S2978   1.810   1_655  S
S2977      H2980   1.406       .  S
S2978      H2979   1.407       .  S
C2983      C2984   1.410       .  A
C2983      C4074   1.405   1_545  A
C2984      C2985   1.401       .  A
C2984      H2993   1.083       .  S
C2985      C4072   1.412       .  A
C2985      S2989   1.801       .  S
C2986      C4071   1.413       .  A
C2986      C2987   1.417       .  A
C2987      C2988   1.402       .  A
C2987      H2994   1.085       .  S
C2988      C4069   1.405       .  A
C2988      S2990   1.803       .  S
S2989      H2992   1.394       .  S
S2990      H2991   1.406       .  S
C2995      C2996   1.418       .  A
C2996      H3005   1.081       .  S
C2997      C2998   1.401   1_455  A
C2997      S3001   1.801       .  S
C2998      C2999   1.400       .  A
C2999      C3000   1.392       .  A
C2999      H3006   1.083       .  S
S3001      H3004   1.406       .  S
S3002      H3003   1.403       .  S
C3007      C3008   1.407       .  A
C3007      C3012   1.414       .  A
C3008      C3009   1.410       .  A
C3008      H3017   1.081       .  S
C3009      C3010   1.422       .  A
C3009      S3013   1.804       .  S
C3010      C3011   1.393       .  A
C3011      C3012   1.385       .  A
C3011      H3018   1.082       .  S
C3012      S3014   1.814       .  S
S3013      H3016   1.405       .  S
S3014      H3015   1.407       .  S
C3019      C4106   1.396   1_545  A
C3019      C3024   1.417       .  A
C3020      C4105   1.395       .  A
C3020      C3021   1.402       .  A
C3020      H3029   1.083       .  S
C3021      C3022   1.424       .  A
C3021      S3025   1.800       .  S
C3022      C4109   1.403       .  A
C3023      C4108   1.404   1_545  A
C3023      C3024   1.402       .  A
C3023      H3030   1.079       .  S
C3024      S3026   1.801       .  S
S3025      H3028   1.407       .  S
S3026      H3027   1.405       .  S
C3031      C3032   1.399       .  A
C3031      C3036   1.405       .  A
C3032      C3033   1.402       .  A
C3032      H3041   1.084       .  S
C3033      C3034   1.428       .  A
C3033      S3037   1.802       .  S
C3034      C3035   1.415       .  A
C3035      C3036   1.396       .  A
C3035      H3042   1.070       .  S
C3036      S3038   1.811       .  S
S3037      H3040   1.407       .  S
S3038      H3039   1.406       .  S
C3043      C3044   1.392       .  A
C3043      C3048   1.418       .  A
C3044      C3045   1.390       .  A
C3044      H3053   1.086       .  S
C3045      C3046   1.436       .  A
C3045      S3049   1.814       .  S
C3046      C3047   1.408       .  A
C3047      C3048   1.401       .  A
C3047      H3054   1.083       .  S
C3048      S4136   1.798       .  S
S3049      H3052   1.400       .  S
S3050      C4134   1.798       .  S
S3050      H3051   1.403       .  S
C3055      C3056   1.407       .  A
C3055      C3060   1.414       .  A
C3056      C3057   1.386       .  A
C3056      H3065   1.068       .  S
C3057      C3058   1.403       .  A
C3057      S3061   1.806       .  S
C3058      C3059   1.412       .  A
C3059      C3060   1.416       .  A
C3059      H4152   1.083       .  S
C3060      S4148   1.804       .  S
S3061      H3064   1.400       .  S
S3062      C4146   1.804       .  S
S3062      H3063   1.406       .  S
H3066      C4145   1.082       .  S
C3067      C3068   1.412       .  A
C3067      C3072   1.409       .  A
C3068      C3069   1.399       .  A
C3068      H3077   1.081       .  S
C3069      C3070   1.410       .  A
C3069      S3073   1.802       .  S
C3070      C3071   1.417       .  A
C3071      C3072   1.406       .  A
C3071      H3078   1.084       .  S
C3072      S3074   1.805       .  S
S3073      H3076   1.401       .  S
S3074      H3075   1.403       .  S
C3079      C3080   1.404       .  A
C3079      C3084   1.409       .  A
C3080      C3081   1.408       .  A
C3080      H3089   1.084       .  S
C3081      C3082   1.418       .  A
C3081      S3085   1.800       .  S
C3082      C3083   1.405       .  A
C3083      C3084   1.388       .  A
C3083      H3090   1.074       .  S
C3084      S3086   1.807       .  S
S3085      H3088   1.407       .  S
S3086      H3087   1.403       .  S
C3091      C3092   1.422       .  A
C3091      C3096   1.425       .  A
C3092      C3093   1.407       .  A
C3092      H3101   1.084       .  S
C3093      C3094   1.403       .  A
C3093      S3097   1.802       .  S
C3094      C3095   1.404       .  A
C3095      C3096   1.401       .  A
S3097      H3100   1.405       .  S
C3103      C3104   1.409       .  A
C3104      C3105   1.391       .  A
C3104      H3113   1.075       .  S
C3105      C3106   1.407       .  A
C3105      S3109   1.810       .  S
C3106      C3107   1.407       .  A
C3108      S3110   1.808       .  S
S3109      H3112   1.405       .  S
S3110      H3111   1.406       .  S
C3115      C3116   1.413       .  A
C3115      C3120   1.407       .  A
C3116      C3117   1.402       .  A
C3116      H3125   1.083       .  S
C3117      C3118   1.410       .  A
C3117      S3121   1.800       .  S
C3119      H3126   1.084       .  S
S3121      H3124   1.406   1_455  S
S3122      H3123   1.406       .  S
C3127      C3128   1.399       .  A
C3127      C3132   1.421       .  A
C3128      C3129   1.409       .  A
C3128      H3137   1.083       .  S
C3129      C3130   1.425       .  A
C3129      S3133   1.805       .  S
C3130      C3131   1.398       .  A
C3131      C3132   1.404       .  A
C3131      H3138   1.083       .  S
C3132      S3134   1.802       .  S
S3133      H3136   1.407       .  S
S3134      H3135   1.408       .  S
C3139      C3140   1.410       .  A
C3139      C3144   1.417       .  A
C3141      S3145   1.802       .  S
C3142      C3143   1.396       .  A
C3143      C3144   1.397       .  A
C3143      H3150   1.084       .  S
C3144      S3146   1.815       .  S
S3145      H3148   1.404       .  S
S3146      H3147   1.407       .  S
C3151      C3152   1.413       .  A
C3151      C3156   1.419       .  A
C3152      C3153   1.386       .  A
C3152      H3161   1.072       .  S
C3153      C3154   1.399       .  A
C3153      S3157   1.815       .  S
C3154      C3155   1.405       .  A
C3155      C3156   1.404       .  A
C3155      H3162   1.084       .  S
C3156      S3158   1.802       .  S
S3157      H3160   1.406       .  S
S3158      H3159   1.407       .  S
C3163      C3164   1.406       .  A
C3163      C3168   1.415       .  A
C3164      C3165   1.396       .  A
C3164      H3173   1.081       .  S
C3165      C3166   1.406       .  A
C3165      S4255   1.807   1_545  S
C3166      C3167   1.402       .  A
C3167      C3168   1.391       .  A
C3167      H3174   1.085       .  S
C3168      S3170   1.803       .  S
S3169      C4251   1.806       .  S
S3169      H3172   1.406       .  S
S3170      H3171   1.406       .  S
C3175      C3176   1.404       .  A
C3175      C3180   1.419       .  A
C3176      C3177   1.392       .  A
C3176      H3185   1.079       .  S
C3177      C3178   1.413       .  A
C3177      S3181   1.804   1_565  S
C3178      C3179   1.401       .  A
C3179      C3180   1.409       .  A
C3179      H3186   1.083       .  S
C3180      S3182   1.804       .  S
S3181      H3184   1.404   1_545  S
S3182      H3183   1.407       .  S
C3187      C3188   1.411       .  A
C3187      C3192   1.414       .  A
C3188      C3189   1.406       .  A
C3188      H3197   1.082       .  S
C3189      C3190   1.412       .  A
C3189      S3193   1.799       .  S
C3190      C3191   1.406       .  A
C3191      C3192   1.399       .  A
C3191      H3198   1.082       .  S
C3192      S3194   1.811       .  S
S3193      H3196   1.404       .  S
S3194      H3195   1.407       .  S
C3199      C3200   1.400       .  A
C3199      C3204   1.426       .  A
C3200      C3201   1.385       .  A
C3200      H3209   1.083       .  S
C3201      C3202   1.409       .  A
C3201      S3205   1.802       .  S
C3202      C3203   1.397       .  A
C3203      C3204   1.400       .  A
C3203      H3210   1.084       .  S
C3204      S3206   1.803       .  S
S3205      H3208   1.405       .  S
S3206      H3207   1.401       .  S
C3211      C3212   1.407       .  A
C3211      C3216   1.385       .  A
C3212      C3213   1.409       .  A
C3212      H3221   1.083       .  S
C3213      C3214   1.422       .  A
C3213      S3217   1.804       .  S
C3214      C3215   1.424       .  A
C3215      C3216   1.387       .  A
C3215      H3222   1.074       .  S
C3216      S3218   1.802       .  S
S3217      H3220   1.407       .  S
S3218      H3219   1.406       .  S
C3223      C3224   1.411       .  A
C3223      C3228   1.430       .  A
C3224      C3225   1.404       .  A
C3224      H3233   1.083       .  S
C3225      C3226   1.409       .  A
C3225      S4315   1.802       .  S
C3226      C3227   1.391       .  A
C3227      C3228   1.395       .  A
C3227      H3234   1.083       .  S
C3228      S3230   1.808       .  S
S3229      C4311   1.803       .  S
S3229      H3232   1.404       .  S
S3230      H3231   1.407       .  S
C3235      C3236   1.415       .  A
C3235      C3240   1.419       .  A
C3236      C3237   1.400       .  A
C3236      H3245   1.075       .  S
C3237      C3238   1.407       .  A
C3237      S3241   1.813       .  S
C3238      C3239   1.408       .  A
C3239      C3240   1.413       .  A
C3239      H3246   1.077       .  S
C3240      S3242   1.807       .  S
S3241      H3244   1.405       .  S
S3242      H3243   1.406       .  S
C3247      C3248   1.391       .  A
C3247      C3252   1.412       .  A
C3248      C3249   1.394       .  A
C3248      H3257   1.084       .  S
C3249      C3250   1.427       .  A
C3249      S4339   1.805       .  S
C3250      C3251   1.399       .  A
C3251      C3252   1.399       .  A
C3251      H3258   1.080       .  S
C3252      S3254   1.800       .  S
S3253      C4335   1.805   1_545  S
S3253      H3256   1.406       .  S
S3254      H3255   1.405       .  S
C3259      C3260   1.557       .  S
C3259      C3265   1.530       .  S
C3259      C3263   1.522       .  S
C3259      C3747   1.525       .  S
C3260      H3267   1.083       .  S
C3260      C3261   1.387       .  D
C3261      C3262   1.543       .  S
C3261      C4321   1.519       .  S
C3262      C3266   1.542       .  S
C3262      C3264   1.561       .  S
C3262      H3268   1.108       .  S
C3263      H3269   1.087       .  S
C3263      C3264   1.356       .  D
C3264      C4333   1.470       .  S
C3265      H3270   1.074       .  S
C3265      C3266   1.356       .  D
C3266      C3315   1.501       .  S
C3271      C3272   1.545       .  S
C3271      C3277   1.517       .  S
C3271      C3275   1.526       .  S
C3271      C3732   1.507       .  S
C3272      H3279   1.086       .  S
C3272      C3273   1.384       .  D
C3273      C3274   1.547       .  S
C3273      C4309   1.506       .  S
C3274      C3278   1.551       .  S
C3274      C3276   1.560       .  S
C3274      H3280   1.101       .  S
C3275      H3281   1.088       .  S
C3275      C3276   1.352       .  D
C3276      C4297   1.476       .  S
C3277      H3282   1.066       .  S
C3277      C3278   1.349       .  D
C3278      C3310   1.502       .  S
C3283      C3284   1.556       .  S
C3283      C3289   1.529       .  S
C3283      C3287   1.537       .  S
C3283      C3736   1.525       .  S
C3284      H3291   1.086       .  S
C3284      C3285   1.379       .  D
C3285      C3286   1.532       .  S
C3285      C4273   1.502       .  S
C3286      C3290   1.535       .  S
C3286      C3288   1.544       .  S
C3286      H3292   1.099       .  S
C3287      H3293   1.085       .  S
C3287      C3288   1.372       .  D
C3288      C4285   1.486       .  S
C3289      H3294   1.075       .  S
C3289      C3290   1.355       .  D
C3290      C3314   1.496       .  S
O3295      C3310   1.275       .  A
O3295     Al3303   1.969       .  S
C3296      C3707   1.528       .  S
C3296      O3306   1.274       .  A
C3296      O3297   1.262       .  A
O3297     Al3299   1.914       .  S
O3298      C3300   1.274       .  A
O3298     Al3299   1.963       .  S
Al3299     O3307   1.958       .  S
Al3299     O3309   1.926       .  S
Al3299     O3308   1.786       .  S
C3300      C3695   1.531       .  S
C3300      O3313   1.262       .  A
O3301      C3311   1.272       .  A
O3301     Al3303   1.956       .  S
O3302      C3315   1.275       .  A
O3302     Al3312   1.968       .  S
Al3303     O3316   1.923       .  S
Al3303     O3313   1.918       .  S
Al3303     O3308   1.785       .  S
O3304      C3311   1.261       .  A
O3304     Al3312   1.910       .  S
O3305      C3314   1.265       .  A
O3305     Al3312   1.924       .  S
O3306     Al3312   1.958       .  S
O3307      C3314   1.272       .  A
O3308     Al3312   1.785       .  S
O3309      C3310   1.263       .  A
C3311      C3719   1.524       .  S
C3315      O3316   1.264       .  A
N3317      C3322   1.348   1_554  A
N3317      C3321   1.342   1_554  A
N3317      H3349   1.042       .  S
N3318      C3325   1.349       .  A
N3318      C3326   1.345       .  A
N3319      C3324   1.355       .  A
N3319      C3323   1.363       .  A
N3320      C3327   1.345       .  A
N3320      C3328   1.336       .  A
C3321      C3329   1.383       .  A
C3321      C3337   1.395       .  A
C3322      C3338   1.413       .  A
C3322      C3330   1.391       .  A
C3323      C3331   1.396       .  A
C3323      C3340   1.438       .  A
C3324      C3339   1.415       .  A
C3324      C3332   1.377       .  A
C3325      C3337   1.409   1_554  A
C3325      C3333   1.383       .  A
C3326      C3334   1.391       .  A
C3327      C3335   1.384       .  A
C3327      C3338   1.402   1_544  A
C3328      C3336   1.389       .  A
C3329      C3330   1.368       .  A
C3329      H3341   1.083       .  S
C3330      H3342   1.077       .  S
C3331      C3332   1.360       .  A
C3331      H3343   1.071       .  S
C3332      H3344   1.083       .  S
C3333      C3334   1.382       .  A
C3333      H3345   1.079       .  S
C3334      H3346   1.079       .  S
C3335      C3336   1.383       .  A
C3335      H3347   1.083       .  S
C3336      H3348   1.083       .  S
C3337      C4336   1.489       .  S
C3338      C4312   1.477       .  S
C3339      C4252   1.478       .  S
C3340      C4261   1.508       .  S
C3351      C3352   1.548       .  S
C3351      C3357   1.513       .  S
C3351      C3355   1.533       .  S
C3351      C3576   1.511       .  S
C3352      H3359   1.083       .  S
C3352      C3353   1.385       .  D
C3353      C3354   1.543       .  S
C3353      C4237   1.501       .  S
C3354      C3358   1.546       .  S
C3354      C3356   1.573       .  S
C3354      H3360   1.107       .  S
C3355      C3356   1.352       .  D
C3356      C4264   1.497       .  S
C3357      H3362   1.060       .  S
C3357      C3358   1.347       .  D
C3358      C3406   1.499       .  S
C3363      C3364   1.565       .  S
C3363      C3369   1.522       .  S
C3363      C3367   1.539       .  S
C3363      C3572   1.542       .  S
C3364      H3371   1.084       .  S
C3364      C3365   1.400       .  D
C3365      C3366   1.544       .  S
C3365      C4225   1.505       .  S
C3366      C3370   1.553       .  S
C3366      C3368   1.544       .  S
C3366      H3372   1.100       .  S
C3367      H3373   1.087       .  S
C3367      C3368   1.350       .  D
C3368      C4216   1.507       .  S
C3369      H3374   1.076       .  S
C3369      C3370   1.359       .  D
C3370      C3402   1.519       .  S
C3375      C3376   1.536       .  S
C3375      C3381   1.523       .  S
C3375      C3379   1.545   1_655  S
C3375      C3587   1.530       .  S
C3376      H3383   1.085       .  S
C3376      C3377   1.382       .  D
C3377      C3378   1.549       .  S
C3377      C4249   1.484       .  S
C3378      C3382   1.548       .  S
C3378      C3380   1.542       .  S
C3378      H3384   1.108       .  S
C3379      H3385   1.087       .  S
C3379      C3380   1.361   1_455  D
C3380      C4201   1.495   1_655  S
C3381      H3386   1.076       .  S
C3381      C3382   1.361       .  D
C3382      C3407   1.499       .  S
O3387      C3402   1.278       .  A
O3387     Al3395   1.976       .  S
C3388      C3535   1.512       .  S
C3388      O3398   1.269       .  A
C3388      O3389   1.258       .  A
O3389     Al3391   1.903       .  S
O3390      C3392   1.269       .  A
O3390     Al3391   1.970       .  S
Al3391     O3399   1.965       .  S
Al3391     O3401   1.937       .  S
Al3391     O3400   1.794       .  S
C3392      C3547   1.530       .  S
C3392      O3405   1.264       .  A
O3393      C3403   1.271       .  A
O3393     Al3395   1.987       .  S
O3394      C3407   1.271       .  A
O3394     Al3404   1.938       .  S
Al3395     O3408   1.936       .  S
Al3395     O3405   1.884       .  S
Al3395     O3400   1.772       .  S
O3396      C3403   1.261       .  A
O3396     Al3404   1.896       .  S
O3397      C3406   1.262       .  A
O3397     Al3404   1.919       .  S
O3398     Al3404   1.939       .  S
O3399      C3406   1.277       .  A
O3400     Al3404   1.776       .  S
O3401      C3402   1.268       .  A
C3403      C3559   1.541       .  S
C3407      O3408   1.270       .  A
N3409      C3414   1.350   1_554  A
N3409      C3413   1.347   1_554  A
N3409      H3441   1.042       .  S
N3410      C3417   1.339       .  A
N3410      C3418   1.347       .  A
N3411      C3416   1.348       .  A
N3411      C3415   1.350       .  A
N3412      C3419   1.349       .  A
N3412      C3420   1.349       .  A
C3413      C3421   1.389       .  A
C3413      C3429   1.412       .  A
C3414      C3430   1.406       .  A
C3414      C3422   1.384       .  A
C3415      C3423   1.377       .  A
C3415      C3432   1.402   1_655  A
C3416      C3431   1.416       .  A
C3416      C3424   1.395       .  A
C3417      C3429   1.409   1_554  A
C3417      C3425   1.387       .  A
C3418      C3426   1.384       .  A
C3419      C3427   1.384       .  A
C3419      C3430   1.419   1_554  A
C3420      C3428   1.385       .  A
C3421      C3422   1.375       .  A
C3421      H3433   1.082       .  S
C3422      H3434   1.081       .  S
C3423      C3424   1.362       .  A
C3423      H3435   1.081       .  S
C3424      H3436   1.072       .  S
C3425      C3426   1.392       .  A
C3425      H3437   1.080       .  S
C3427      C3428   1.389       .  A
C3427      H3439   1.077       .  S
C3428      H3440   1.082       .  S
C3429      C4288   1.475       .  S
C3430      C4324   1.499       .  S
C3431      C4228   1.490       .  S
C3432      C4204   1.496       .  S
N3443      C3448   1.345   1_554  A
N3443      C3447   1.347   1_554  A
N3443      H3475   1.045       .  S
N3444      C3451   1.343       .  A
N3444      C3452   1.337       .  A
N3445      C3450   1.347       .  A
N3445      C3449   1.347       .  A
N3445      H3476   1.044       .  S
N3446      C3453   1.351       .  A
N3446      C3454   1.352       .  A
C3447      C3455   1.380       .  A
C3447      C3463   1.406       .  A
C3448      C3464   1.414       .  A
C3448      C3456   1.391       .  A
C3449      C3457   1.391       .  A
C3449      C3466   1.411       .  A
C3450      C3465   1.401       .  A
C3450      C3458   1.384       .  A
C3451      C3463   1.409   1_554  A
C3451      C3459   1.387       .  A
C3452      C3466   1.400       .  A
C3452      C3460   1.384       .  A
C3453      C3461   1.391       .  A
C3453      C3464   1.430   1_554  A
C3454      C3462   1.381       .  A
C3454      C3465   1.413       .  A
C3455      C3456   1.384       .  A
C3455      H3467   1.082       .  S
C3456      H3468   1.073       .  S
C3457      C3458   1.366       .  A
C3457      H3469   1.081       .  S
C3458      H3470   1.080       .  S
C3459      C3460   1.390       .  A
C3459      H3471   1.081       .  S
C3460      H3472   1.082       .  S
C3461      C3462   1.391       .  A
C3461      H3473   1.077       .  S
C3462      H3474   1.082       .  S
C3463      C4276   1.494       .  S
C3464      C4300   1.522       .  S
C3465      C4213   1.501       .  S
C3466      C4240   1.466       .  S
C3477      C3478   1.545       .  S
C3477      C3483   1.521   1_655  S
C3477      C3481   1.541       .  S
C3477      C3794   1.529       .  S
C3478      H3485   1.088       .  S
C3479      C3480   1.554       .  S
C3479      C4180   1.498       .  S
C3480      C3484   1.551       .  S
C3480      C3482   1.559       .  S
C3480      H3486   1.108       .  S
C3481      H3487   1.083       .  S
C3482      C4189   1.508       .  S
C3483      H3488   1.068       .  S
C3484      C3532   1.503       .  S
C3489      C3490   1.541       .  S
C3489      C3495   1.522       .  S
C3489      C3493   1.540       .  S
C3489      C3805   1.520       .  S
C3490      H3497   1.088       .  S
C3490      C3491   1.349       .  D
C3491      C3492   1.557       .  S
C3491      C4153   1.498       .  S
C3492      C3496   1.559       .  S
C3492      C3494   1.561       .  S
C3492      H3498   1.109       .  S
C3493      H3499   1.083       .  S
C3493      C3494   1.385       .  D
C3494      C4168   1.507       .  S
C3495      H3500   1.072       .  S
C3495      C3496   1.357       .  D
C3496      C3533   1.506       .  S
C3501      C3502   1.538       .  S
C3501      C3507   1.526       .  S
C3501      C3505   1.554       .  S
C3501      C3790   1.524       .  S
C3502      H3509   1.084       .  S
C3503      C3504   1.557   1_545  S
C3503      C4129   1.486       .  S
C3504      C3508   1.533       .  S
C3504      C3506   1.542   1_565  S
C3504      H3510   1.110       .  S
C3505      H3511   1.085       .  S
C3506      C4141   1.508       .  S
C3507      H3512   1.076       .  S
C3508      C3528   1.495       .  S
O3513      C3528   1.266       .  A
O3513     Al3521   1.924       .  S
C3514      C3765   1.532       .  S
C3514      O3524   1.260       .  A
C3514      O3515   1.270       .  A
O3515     Al3517   1.968       .  S
O3516      C3518   1.263       .  A
O3516     Al3517   1.901       .  S
Al3517     O3525   1.938       .  S
Al3517     O3527   1.954       .  S
Al3517     O3526   1.784       .  S
C3518      C3753   1.530       .  S
C3518      O3531   1.269       .  A
O3519      C3529   1.264       .  A
O3519     Al3521   1.907       .  S
O3520      C3533   1.265       .  A
O3520     Al3530   1.932       .  S
Al3521     O3534   1.968       .  S
Al3521     O3531   1.963       .  S
Al3521     O3526   1.789       .  S
O3522      C3529   1.270       .  A
O3522     Al3530   1.953       .  S
O3523      C3532   1.270       .  A
O3523     Al3530   1.948       .  S
O3524     Al3530   1.884       .  S
O3525      C3532   1.267       .  A
O3526     Al3530   1.781       .  S
O3527      C3528   1.272       .  A
C3529      C3777   1.532       .  S
C3533      O3534   1.274       .  A
C3535      C3536   1.538       .  S
C3535      C3541   1.511       .  S
C3535      C3539   1.538       .  S
C3536      H3543   1.077       .  S
C3536      C3537   1.389       .  D
C3537      C3538   1.563       .  S
C3537      C4120   1.516       .  S
C3538      C3542   1.541       .  S
C3538      C3540   1.550       .  S
C3538      H3544   1.103       .  S
C3539      H3545   1.087       .  S
C3539      C3540   1.363       .  D
C3540      C4105   1.491       .  S
C3541      H3546   1.074       .  S
C3541      C3542   1.344       .  D
C3542      C3586   1.486       .  S
C3547      C3548   1.543       .  S
C3547      C3553   1.520       .  S
C3547      C3551   1.562       .  S
C3548      H3555   1.088       .  S
C3548      C3549   1.344       .  D
C3549      C3550   1.530       .  S
C3549      C4084   1.486       .  S
C3550      C3554   1.528       .  S
C3550      C3552   1.548       .  S
C3550      H3556   1.101       .  S
C3551      H3557   1.084       .  S
C3551      C3552   1.399       .  D
C3552      C4093   1.501       .  S
C3553      H3558   1.076       .  S
C3553      C3554   1.355       .  D
C3554      C3590   1.481       .  S
C3559      C3560   1.544       .  S
C3559      C3565   1.531       .  S
C3559      C3563   1.539       .  S
C3560      H3567   1.087       .  S
C3560      C3561   1.359       .  D
C3561      C3562   1.544       .  S
C3561      C4069   1.494       .  S
C3562      C3566   1.555       .  S
C3562      C3564   1.556       .  S
C3562      H3568   1.109       .  S
C3563      H3569   1.086       .  S
C3563      C3564   1.382       .  D
C3564      C4057   1.492       .  S
C3565      H3570   1.069       .  S
C3565      C3566   1.363       .  D
C3566      C3591   1.516       .  S
O3571      C3586   1.264       .  A
O3571     Al3579   1.930       .  S
C3572      O3582   1.269       .  A
O3573     Al3575   1.959       .  S
O3574     Al3575   1.859       .  S
Al3575     O3583   1.883       .  S
Al3575     O3585   1.939       .  S
Al3575     O3584   1.786       .  S
C3576      O3589   1.274       .  A
O3577     Al3579   1.881       .  S
O3578     Al3588   1.960       .  S
Al3579     O3592   1.954       .  S
Al3579     O3589   1.971       .  S
O3580     Al3588   1.962   1_545  S
O3581      C3590   1.276       .  A
O3581     Al3588   1.964       .  S
O3582     Al3588   1.926       .  S
N3593      C3598   1.348       .  A
N3593      C3597   1.348       .  A
N3593      H3625   1.042       .  S
N3594      C3601   1.343       .  A
N3594      C3602   1.342       .  A
N3595      C3600   1.347       .  A
N3595      C3599   1.349       .  A
N3595      H3626   1.043       .  S
N3596      C3603   1.343       .  A
N3596      C3604   1.347       .  A
C3597      C3605   1.382       .  A
C3597      C3613   1.405       .  A
C3598      C3614   1.412       .  A
C3598      C3606   1.392       .  A
C3599      C3607   1.389       .  A
C3599      C3616   1.409       .  A
C3600      C3615   1.407       .  A
C3600      C3608   1.384       .  A
C3601      C3613   1.409       .  A
C3601      C3609   1.385       .  A
C3602      C3616   1.406       .  A
C3602      C3610   1.386       .  A
C3603      C3611   1.389       .  A
C3603      C3614   1.414       .  A
C3604      C3612   1.385       .  A
C3604      C3615   1.410       .  A
C3605      C3606   1.372       .  A
C3605      H3617   1.083       .  S
C3606      H3618   1.079       .  S
C3607      C3608   1.362       .  A
C3607      H3619   1.080       .  S
C3608      H3620   1.077       .  S
C3609      C3610   1.391       .  A
C3611      C3612   1.392       .  A
C3611      H3623   1.082       .  S
C3612      H3624   1.082       .  S
C3613      C4060   1.487       .  S
C3614      C4117   1.481       .  S
C3615      C4156   1.497       .  S
C3616      C4192   1.477       .  S
N3627      C3632   1.337       .  A
N3627      C3631   1.343       .  A
N3627      H3659   1.045       .  S
N3628      C3635   1.352   1_565  A
N3628      C3636   1.343   1_565  A
N3629      C3634   1.356       .  A
N3629      C3633   1.355       .  A
N3629      H3660   1.038       .  S
N3630      C3637   1.351       .  A
N3630      C3638   1.338       .  A
C3631      C3639   1.386       .  A
C3631      C3647   1.388       .  A
C3632      C3648   1.385       .  A
C3632      C3640   1.386       .  A
C3633      C3641   1.380       .  A
C3633      C3650   1.412   1_565  A
C3634      C3649   1.432       .  A
C3634      C3642   1.395       .  A
C3635      C3647   1.415   1_545  A
C3635      C3643   1.388       .  A
C3636      C3650   1.409       .  A
C3636      C3644   1.383       .  A
C3637      C3645   1.378       .  A
C3637      C3648   1.396       .  A
C3638      C3646   1.389       .  A
C3638      C3649   1.416       .  A
C3639      C3640   1.363       .  A
C3639      H3651   1.083       .  S
C3640      H3652   1.083       .  S
C3641      C3642   1.366       .  A
C3641      H3653   1.083   1_565  S
C3642      H3654   1.073       .  S
C3643      C3644   1.389       .  A
C3645      C3646   1.383       .  A
C3645      H3657   1.083       .  S
C3646      H3658   1.073       .  S
C3647      C4132   1.504       .  S
C3648      C4165   1.479       .  S
C3649      C4096   1.491       .  S
C3650      C4072   1.501       .  S
N3661      C3666   1.356       .  A
N3661      C3665   1.357       .  A
N3661      H3693   1.044       .  S
N3662      C3669   1.350       .  A
N3662      C3670   1.349       .  A
N3663      C3668   1.353       .  A
N3663      C3667   1.352       .  A
N3663      H3694   1.044       .  S
N3664      C3671   1.349       .  A
N3664      C3672   1.355       .  A
C3665      C3673   1.386       .  A
C3665      C3681   1.419       .  A
C3666      C3682   1.415       .  A
C3666      C3674   1.389       .  A
C3667      C3675   1.388       .  A
C3667      C3684   1.415       .  A
C3668      C3683   1.411       .  A
C3668      C3676   1.386       .  A
C3669      C3681   1.419       .  A
C3669      C3677   1.382       .  A
C3670      C3684   1.421       .  A
C3670      C3678   1.385       .  A
C3671      C3679   1.387   1_565  A
C3671      C3682   1.419       .  A
C3672      C3680   1.385   1_565  A
C3672      C3683   1.419       .  A
C3673      C3674   1.359       .  A
C3673      H3685   1.080       .  S
C3674      H3686   1.082       .  S
C3675      C3676   1.369       .  A
C3675      H3687   1.081       .  S
C3676      H3688   1.083       .  S
C3677      C3678   1.383       .  A
C3679      C3680   1.379       .  A
C3681      C4177   1.518       .  S
C3682      C4144   1.493       .  S
C3683      C4108   1.512       .  S
C3684      C4081   1.507       .  S
C3695      C3696   1.543       .  S
C3695      C3701   1.527       .  S
C3695      C3699   1.541       .  S
C3696      H3703   1.085       .  S
C3696      C3697   1.378       .  D
C3697      C3698   1.556       .  S
C3697      C4033   1.496       .  S
C3698      C3702   1.547       .  S
C3698      C3700   1.541       .  S
C3698      H3704   1.109       .  S
C3699      H3705   1.087       .  S
C3699      C3700   1.371       .  D
C3700      C4048   1.493       .  S
C3701      H3706   1.069       .  S
C3701      C3702   1.356       .  D
C3702      C3750   1.504       .  S
C3707      C3708   1.548       .  S
C3707      C3713   1.523       .  S
C3707      C3711   1.540       .  S
C3708      H3715   1.085       .  S
C3708      C3709   1.380       .  D
C3709      C3710   1.551       .  S
C3709      C4021   1.500       .  S
C3710      C3714   1.535       .  S
C3710      C3712   1.543       .  S
C3710      H3716   1.110       .  S
C3711      H3717   1.086       .  S
C3711      C3712   1.371       .  D
C3712      C4009   1.492       .  S
C3713      H3718   1.064       .  S
C3713      C3714   1.354       .  D
C3714      C3746   1.493       .  S
C3719      C3720   1.540       .  S
C3719      C3725   1.533       .  S
C3719      C3723   1.534       .  S
C3720      H3727   1.084       .  S
C3720      C3721   1.378       .  D
C3721      C3722   1.554       .  S
C3721      C3985   1.497       .  S
C3722      C3726   1.526       .  S
C3722      C3724   1.531       .  S
C3722      H3728   1.109       .  S
C3723      H3729   1.087       .  S
C3723      C3724   1.366       .  D
C3724      C3997   1.469       .  S
C3725      H3730   1.068       .  S
C3725      C3726   1.359       .  D
C3726      C3751   1.489       .  S
O3731      C3746   1.269       .  A
O3731     Al3739   1.929       .  S
C3732      O3742   1.256       .  A
C3732      O3733   1.267       .  A
O3734      C3736   1.263       .  A
C3736      O3749   1.268       .  A
O3737      C3747   1.265       .  A
O3738      C3751   1.263       .  A
Al3739     O3749   1.949       .  S
O3740      C3747   1.268       .  A
O3741      C3750   1.270       .  A
O3741     Al3748   1.943       .  S
O3742     Al3748   1.865       .  S
O3743      C3750   1.268       .  A
O3745      C3746   1.274       .  A
C3751      O3752   1.272       .  A
C3753      C3754   1.562       .  S
C3753      C3759   1.529       .  S
C3753      C3757   1.529       .  S
C3754      H3761   1.085       .  S
C3754      C3755   1.389       .  D
C3755      C3961   1.494   1_565  S
C3756      C3760   1.544       .  S
C3756      H3762   1.103       .  S
C3757      H3763   1.086       .  S
C3757      C3758   1.353       .  D
C3758      C3973   1.491       .  S
C3759      H3764   1.062       .  S
C3760      C3808   1.511       .  S
C3765      C3766   1.538       .  S
C3765      C3771   1.522       .  S
C3765      C3769   1.546       .  S
C3766      H3773   1.084       .  S
C3766      C3767   1.387       .  D
C3767      C3940   1.494       .  S
C3768      C3772   1.554       .  S
C3768      H3774   1.102       .  S
C3769      H3775   1.087       .  S
C3769      C3770   1.356       .  D
C3770      C3949   1.503       .  S
C3771      H3776   1.078       .  S
C3772      C3804   1.511       .  S
C3777      C3778   1.548       .  S
C3777      C3783   1.520       .  S
C3777      C3781   1.545       .  S
C3778      H3785   1.083       .  S
C3778      C3779   1.391       .  D
C3779      C3780   1.549       .  S
C3779      C3925   1.502       .  S
C3780      C3784   1.550       .  S
C3780      C3782   1.562       .  S
C3780      H3786   1.107       .  S
C3781      H3787   1.087       .  S
C3781      C3782   1.362       .  D
C3782      C3913   1.516       .  S
C3783      H3788   1.078       .  S
C3783      C3784   1.353       .  D
C3784      C3809   1.506       .  S
O3789      C3804   1.272       .  A
O3789     Al3797   1.939       .  S
C3790      O3800   1.270       .  A
C3790      O3791   1.256       .  A
O3791     Al3793   1.895       .  S
O3792      C3794   1.273       .  A
O3792     Al3793   1.979       .  S
Al3793     O3801   1.995       .  S
Al3793     O3803   1.944       .  S
Al3793     O3802   1.784       .  S
C3794      O3807   1.261       .  A
O3795      C3805   1.266       .  A
O3795     Al3797   1.964       .  S
O3796      C3809   1.277       .  A
O3796     Al3806   1.965       .  S
Al3797     O3810   1.931       .  S
Al3797     O3807   1.875       .  S
Al3797     O3802   1.781       .  S
O3798      C3805   1.258       .  A
O3798     Al3806   1.870       .  S
O3799      C3808   1.262       .  A
O3799     Al3806   1.911       .  S
O3800     Al3806   1.968       .  S
O3801      C3808   1.284       .  A
O3802     Al3806   1.775       .  S
O3803      C3804   1.270       .  A
C3809      O3810   1.267       .  A
N3811      C3816   1.362       .  A
N3811      C3815   1.357       .  A
N3811      H3843   1.039       .  S
N3812      C3819   1.342       .  A
N3812      C3820   1.349       .  A
N3813      C3818   1.344       .  A
N3813      C3817   1.347       .  A
N3813      H3844   1.040       .  S
N3814      C3821   1.353       .  A
N3814      C3822   1.354       .  A
C3815      C3823   1.387       .  A
C3815      C3831   1.426       .  A
C3816      C3832   1.426       .  A
C3816      C3824   1.386       .  A
C3817      C3825   1.382       .  A
C3817      C3834   1.401       .  A
C3818      C3833   1.406       .  A
C3818      C3826   1.389       .  A
C3819      C3831   1.404       .  A
C3820      C3834   1.405       .  A
C3821      C3829   1.382       .  A
C3821      C3832   1.420       .  A
C3822      C3830   1.382       .  A
C3822      C3833   1.419       .  A
C3823      C3824   1.352       .  A
C3823      H3835   1.076       .  S
C3824      H3836   1.076       .  S
C3825      C3826   1.376       .  A
C3825      H3837   1.081       .  S
C3826      H3838   1.082       .  S
C3827      C3828   1.378       .  A
C3827      H3839   1.082       .  S
C3828      H3840   1.083       .  S
C3829      C3830   1.383       .  A
C3829      H3841   1.075       .  S
C3830      H3842   1.078       .  S
C3831      C3937   1.478       .  S
C3832      C3916   1.518       .  S
C3833      C4045   1.491       .  S
N3845      C3850   1.344       .  A
N3845      C3849   1.349       .  A
N3845      H3877   1.043       .  S
N3846      C3853   1.349       .  A
N3846      C3854   1.342       .  A
N3847      C3852   1.353       .  A
N3847      C3851   1.347       .  A
N3847      H3878   1.040       .  S
N3848      C3855   1.344       .  A
N3848      C3856   1.346       .  A
C3849      C3857   1.384       .  A
C3849      C3865   1.405       .  A
C3850      C3866   1.402       .  A
C3850      C3858   1.388       .  A
C3851      C3859   1.388       .  A
C3851      C3868   1.412       .  A
C3852      C3867   1.407       .  A
C3852      C3860   1.383       .  A
C3853      C3865   1.407       .  A
C3854      C3868   1.410       .  A
C3855      C3863   1.384       .  A
C3855      C3866   1.401       .  A
C3856      C3864   1.386       .  A
C3856      C3867   1.411       .  A
C3857      C3858   1.367       .  A
C3857      H3869   1.080       .  S
C3858      H3870   1.082       .  S
C3859      C3860   1.374       .  A
C3859      H3871   1.082       .  S
C3860      H3872   1.081       .  S
C3861      C3862   1.385       .  A
C3861      H3873   1.081       .  S
C3862      H3874   1.082       .  S
C3863      C3864   1.382       .  A
C3863      H3875   1.082       .  S
C3864      H3876   1.080       .  S
C3865      C3976   1.493       .  S
C3866      C3928   1.468       .  S
C3867      C4024   1.490       .  S
N3879      C3884   1.349       .  A
N3879      C3883   1.346       .  A
N3879      H3911   1.038       .  S
N3880      C3887   1.348   1_655  A
N3880      C3888   1.348   1_655  A
N3881      C3886   1.356       .  A
N3881      C3885   1.356       .  A
N3881      H3912   1.042       .  S
N3882      C3889   1.350       .  A
N3882      C3890   1.349       .  A
C3883      C3891   1.387       .  A
C3883      C3899   1.408   1_655  A
C3884      C3900   1.407       .  A
C3884      C3892   1.386       .  A
C3885      C3893   1.379       .  A
C3885      C3902   1.416   1_655  A
C3886      C3901   1.423       .  A
C3886      C3894   1.391       .  A
C3887      C3899   1.417       .  A
C3888      C3902   1.412       .  A
C3889      C3900   1.416       .  A
C3890      C3901   1.412       .  A
C3891      C3892   1.373       .  A
C3891      H3903   1.082       .  S
C3892      H3904   1.079       .  S
C3893      C3894   1.355       .  A
C3893      H3905   1.077       .  S
C3894      H3906   1.073       .  S
C3895      C3896   1.389       .  A
C3895      H3907   1.081       .  S
C3896      H3908   1.082       .  S
C3897      C3898   1.383   1_545  A
C3897      H3909   1.079   1_545  S
C3898      H3910   1.082       .  S
C3901      C3964   1.491       .  S
C3902      C3952   1.504       .  S
C3913      C3914   1.410       .  A
C3913      C3918   1.410       .  A
C3914      C3915   1.405       .  A
C3914      H3923   1.081       .  S
C3915      C3916   1.417       .  A
C3915      S3919   1.804       .  S
C3916      C3917   1.418       .  A
C3917      C3918   1.415       .  A
C3917      H3924   1.084       .  S
C3918      S3920   1.799       .  S
S3919      H3922   1.402       .  S
S3920      H3921   1.406       .  S
C3925      C3926   1.416       .  A
C3925      C3930   1.418       .  A
C3926      C3927   1.390       .  A
C3926      H3935   1.076       .  S
C3927      C3928   1.394       .  A
C3927      S3931   1.804       .  S
C3928      C3929   1.404       .  A
C3929      C3930   1.401       .  A
C3929      H3936   1.085       .  S
C3930      S3932   1.801       .  S
S3931      H3934   1.407       .  S
S3932      H3933   1.407       .  S
C3937      C3938   1.401       .  A
C3938      C3939   1.393       .  A
C3938      H3947   1.085       .  S
C3939      S3943   1.804       .  S
C3940      C3941   1.411       .  A
C3941      C3942   1.399       .  A
C3941      H3948   1.081       .  S
C3942      S3944   1.805       .  S
S3943      H3946   1.406       .  S
S3944      H3945   1.400       .  S
C3949      C3954   1.409       .  A
C3950      C3951   1.403       .  A
C3950      H3959   1.082       .  S
C3951      C3952   1.412       .  A
C3951      S3955   1.800       .  S
C3952      C3953   1.416       .  A
C3953      H3960   1.084   1_455  S
C3954      S3956   1.801       .  S
S3955      H3958   1.406       .  S
S3956      H3957   1.406       .  S
C3961      C3966   1.417       .  A
C3962      C3963   1.406       .  A
C3962      H3971   1.082       .  S
C3963      C3964   1.417       .  A
C3963      S3967   1.801       .  S
C3964      C3965   1.397       .  A
C3965      H3972   1.084       .  S
C3966      S3968   1.812       .  S
S3967      H3970   1.402       .  S
S3968      H3969   1.406       .  S
C3973      C3978   1.421       .  A
C3974      C3975   1.402       .  A
C3974      H3983   1.084       .  S
C3975      C3976   1.420       .  A
C3975      S3979   1.804       .  S
C3976      C3977   1.398       .  A
C3978      S3980   1.799       .  S
S3979      H3982   1.407       .  S
S3980      H3981   1.405       .  S
C3985      C3986   1.406       .  A
C3985      C3990   1.419       .  A
C3986      C3987   1.394       .  A
C3986      H3995   1.078       .  S
C3987      C3988   1.411       .  A
C3987      S3991   1.812       .  S
C3988      C3989   1.403       .  A
C3989      C3990   1.405       .  A
C3990      S3992   1.801       .  S
S3991      H3994   1.407       .  S
S3992      H3993   1.407       .  S
C3997      C3998   1.407       .  A
C3997      C4002   1.408       .  A
C3998      C3999   1.398       .  A
C3998      H4007   1.083       .  S
C3999      C4000   1.403       .  A
C3999      S4003   1.803       .  S
C4000      C4001   1.405       .  A
C4001      C4002   1.389       .  A
C4001      H4008   1.085   1_565  S
C4002      S4004   1.806   1_565  S
S4003      H4006   1.407       .  S
S4004      H4005   1.406   1_545  S
C4009      C4010   1.402       .  A
C4009      C4014   1.425       .  A
C4010      C4011   1.395       .  A
C4010      H4019   1.084       .  S
C4011      C4012   1.415       .  A
C4011      S4015   1.804       .  S
C4012      C4013   1.399       .  A
C4013      C4014   1.404       .  A
C4013      H4020   1.084       .  S
C4014      S4016   1.801       .  S
S4016      H4017   1.405       .  S
C4021      C4022   1.404       .  A
C4021      C4026   1.418       .  A
C4022      C4023   1.389       .  A
C4022      H4031   1.071       .  S
C4023      C4024   1.409       .  A
C4023      S4027   1.813       .  S
C4024      C4025   1.408       .  A
C4025      C4026   1.410       .  A
C4025      H4032   1.083       .  S
C4026      S4028   1.802       .  S
S4027      H4030   1.407       .  S
S4028      H4029   1.407       .  S
C4033      C4034   1.402       .  A
C4033      C4038   1.415   1_565  A
C4034      C4035   1.391       .  A
C4034      H4043   1.075       .  S
C4035      C4036   1.412   1_565  A
C4035      S4039   1.801       .  S
C4036      C4037   1.407       .  A
C4037      C4038   1.408       .  A
C4038      S4040   1.800       .  S
S4039      H4042   1.398   1_565  S
S4040      H4041   1.407       .  S
C4045      C4046   1.409       .  A
C4045      C4050   1.412       .  A
C4046      C4047   1.398       .  A
C4046      H4055   1.085       .  S
C4047      C4048   1.412       .  A
C4047      S4051   1.806       .  S
C4048      C4049   1.412       .  A
C4049      C4050   1.405       .  A
C4049      H4056   1.083       .  S
C4050      S4052   1.803       .  S
S4051      H4054   1.406       .  S
S4052      H4053   1.403       .  S
C4057      C4058   1.411       .  A
C4057      C4062   1.411       .  A
C4059      C4060   1.409       .  A
C4059      S4063   1.803       .  S
C4061      C4062   1.398   1_455  A
C4061      H4068   1.083       .  S
C4062      S4064   1.810   1_655  S
S4063      H4066   1.405       .  S
S4064      H4065   1.407       .  S
C4069      C4070   1.409       .  A
C4070      C4071   1.401       .  A
C4070      H4079   1.083       .  S
C4071      S4075   1.801       .  S
C4072      C4073   1.417   1_545  A
C4073      C4074   1.403       .  A
C4073      H4080   1.085       .  S
C4074      S4076   1.804       .  S
S4075      H4078   1.393       .  S
S4076      H4077   1.405       .  S
C4081      C4082   1.417       .  A
C4082      H4091   1.082       .  S
C4083      C4084   1.401   1_455  A
C4083      S4087   1.801       .  S
C4084      C4085   1.400       .  A
C4085      C4086   1.392       .  A
C4085      H4092   1.083       .  S
S4087      H4090   1.406       .  S
S4088      H4089   1.402       .  S
C4093      C4094   1.408       .  A
C4093      C4098   1.414       .  A
C4094      C4095   1.412       .  A
C4094      H4103   1.081       .  S
C4095      C4096   1.424       .  A
C4095      S4099   1.804       .  S
C4096      C4097   1.393       .  A
C4097      C4098   1.386       .  A
C4097      H4104   1.082       .  S
C4098      S4100   1.814       .  S
S4099      H4102   1.405       .  S
S4100      H4101   1.407       .  S
C4105      C4110   1.416       .  A
C4106      C4107   1.403       .  A
C4106      H4115   1.083       .  S
C4107      C4108   1.425       .  A
C4107      S4111   1.801       .  S
C4109      C4110   1.400       .  A
C4109      H4116   1.079       .  S
C4110      S4112   1.801       .  S
S4111      H4114   1.407       .  S
S4112      H4113   1.404       .  S
C4117      C4118   1.401       .  A
C4117      C4122   1.406       .  A
C4118      C4119   1.401       .  A
C4118      H4127   1.084       .  S
C4119      C4120   1.424       .  A
C4119      S4123   1.803       .  S
C4120      C4121   1.414       .  A
C4121      C4122   1.396       .  A
C4121      H4128   1.071       .  S
C4122      S4124   1.811       .  S
S4123      H4126   1.408       .  S
S4124      H4125   1.407       .  S
C4129      C4130   1.393   1_545  A
C4129      C4134   1.420       .  A
C4130      C4131   1.390       .  A
C4130      H4139   1.086       .  S
C4131      C4132   1.435       .  A
C4131      S4135   1.815       .  S
C4132      C4133   1.407   1_565  A
C4133      C4134   1.403       .  A
C4133      H4140   1.083       .  S
S4135      H4138   1.400       .  S
S4136      H4137   1.403       .  S
C4141      C4142   1.405   1_545  A
C4141      C4146   1.415       .  A
C4142      C4143   1.384       .  A
C4142      H4151   1.066       .  S
C4143      C4144   1.401       .  A
C4143      S4147   1.801       .  S
C4144      C4145   1.413   1_565  A
C4145      C4146   1.419       .  A
S4147      H4150   1.401       .  S
S4148      H4149   1.407       .  S
C4153      C4154   1.411       .  A
C4153      C4158   1.407       .  A
C4154      C4155   1.399       .  A
C4154      H4163   1.080       .  S
C4155      C4156   1.410       .  A
C4155      S4159   1.801       .  S
C4156      C4157   1.418       .  A
C4157      C4158   1.406       .  A
C4157      H4164   1.084       .  S
C4158      S4160   1.802       .  S
S4159      H4162   1.401       .  S
S4160      H4161   1.405       .  S
C4165      C4166   1.404       .  A
C4165      C4170   1.409       .  A
C4166      C4167   1.409       .  A
C4166      H4175   1.084       .  S
C4167      C4168   1.421       .  A
C4167      S4171   1.800       .  S
C4168      C4169   1.406       .  A
C4169      C4170   1.389       .  A
C4169      H4176   1.074       .  S
C4170      S4172   1.807       .  S
S4171      H4174   1.407       .  S
S4172      H4173   1.403       .  S
C4177      C4178   1.421       .  A
C4177      C4182   1.424       .  A
C4178      C4179   1.407       .  A
C4178      H4187   1.084       .  S
C4179      C4180   1.404       .  A
C4179      S4183   1.803       .  S
C4180      C4181   1.406       .  A
C4181      C4182   1.401       .  A
S4183      H4186   1.405       .  S
C4189      C4190   1.410       .  A
C4190      C4191   1.389       .  A
C4190      H4199   1.075       .  S
C4191      C4192   1.405       .  A
C4191      S4195   1.810       .  S
C4192      C4193   1.406       .  A
C4194      S4196   1.807       .  S
S4195      H4198   1.405       .  S
S4196      H4197   1.407       .  S
C4201      C4202   1.411       .  A
C4201      C4206   1.408       .  A
C4202      C4203   1.401       .  A
C4202      H4211   1.083       .  S
C4203      C4204   1.410       .  A
C4203      S4207   1.799       .  S
C4205      H4212   1.084       .  S
S4207      H4210   1.406   1_455  S
S4208      H4209   1.406       .  S
C4213      C4214   1.398       .  A
C4213      C4218   1.422       .  A
C4214      C4215   1.409       .  A
C4214      H4223   1.083       .  S
C4215      C4216   1.426       .  A
C4215      S4219   1.806       .  S
C4216      C4217   1.399       .  A
C4217      C4218   1.404       .  A
C4217      H4224   1.083       .  S
C4218      S4220   1.804       .  S
S4219      H4222   1.407       .  S
S4220      H4221   1.408       .  S
C4225      C4226   1.409       .  A
C4225      C4230   1.417       .  A
C4227      S4231   1.806       .  S
C4228      C4229   1.396       .  A
C4229      C4230   1.395       .  A
C4229      H4236   1.084       .  S
C4230      S4232   1.816       .  S
S4231      H4234   1.403       .  S
S4232      H4233   1.407       .  S
C4237      C4238   1.412       .  A
C4237      C4242   1.418       .  A
C4238      C4239   1.386       .  A
C4238      H4247   1.072       .  S
C4239      C4240   1.400       .  A
C4239      S4243   1.815       .  S
C4240      C4241   1.406       .  A
C4241      C4242   1.404       .  A
C4241      H4248   1.084       .  S
C4242      S4244   1.802       .  S
S4243      H4246   1.407       .  S
S4244      H4245   1.407       .  S
C4249      C4250   1.408       .  A
C4249      C4254   1.415       .  A
C4250      C4251   1.401       .  A
C4250      H4259   1.082       .  S
C4251      C4252   1.407       .  A
C4252      C4253   1.401       .  A
C4253      C4254   1.391       .  A
C4253      H4260   1.085       .  S
C4254      S4256   1.802       .  S
S4255      H4258   1.406       .  S
S4256      H4257   1.406       .  S
C4261      C4262   1.405       .  A
C4261      C4266   1.420       .  A
C4262      C4263   1.391       .  A
C4262      H4271   1.078       .  S
C4263      C4264   1.411       .  A
C4263      S4267   1.804       .  S
C4264      C4265   1.404       .  A
C4265      C4266   1.411       .  A
C4265      H4272   1.083       .  S
C4266      S4268   1.807       .  S
S4267      H4270   1.403       .  S
S4268      H4269   1.407       .  S
C4273      C4274   1.411       .  A
C4273      C4278   1.417       .  A
C4274      C4275   1.407       .  A
C4274      H4283   1.082       .  S
C4275      C4276   1.411       .  A
C4275      S4279   1.798       .  S
C4276      C4277   1.404       .  A
C4277      C4278   1.400       .  A
C4277      H4284   1.081       .  S
C4278      S4280   1.812       .  S
S4279      H4282   1.403       .  S
S4280      H4281   1.407       .  S
C4285      C4286   1.401       .  A
C4285      C4290   1.424       .  A
C4286      C4287   1.386       .  A
C4286      H4295   1.083       .  S
C4287      C4288   1.410       .  A
C4287      S4291   1.801       .  S
C4288      C4289   1.399       .  A
C4289      C4290   1.402       .  A
C4289      H4296   1.084       .  S
C4290      S4292   1.802       .  S
S4291      H4294   1.405       .  S
S4292      H4293   1.400       .  S
C4297      C4298   1.407       .  A
C4297      C4302   1.386       .  A
C4298      C4299   1.411       .  A
C4298      H4307   1.083       .  S
C4299      C4300   1.422       .  A
C4299      S4303   1.803       .  S
C4300      C4301   1.424       .  A
C4301      C4302   1.388       .  A
C4301      H4308   1.073       .  S
C4302      S4304   1.802       .  S
S4303      H4306   1.407       .  S
S4304      H4305   1.406       .  S
C4309      C4310   1.412       .  A
C4309      C4314   1.429       .  A
C4310      C4311   1.404   1_565  A
C4310      H4319   1.083   1_565  S
C4311      C4312   1.410   1_545  A
C4312      C4313   1.390       .  A
C4313      C4314   1.394       .  A
C4313      H4320   1.083       .  S
C4314      S4316   1.807       .  S
S4315      H4318   1.405       .  S
S4316      H4317   1.407       .  S
C4321      C4322   1.415       .  A
C4321      C4326   1.418       .  A
C4322      C4323   1.399       .  A
C4322      H4331   1.074       .  S
C4323      C4324   1.408       .  A
C4323      S4327   1.813       .  S
C4324      C4325   1.410       .  A
C4325      C4326   1.410       .  A
C4325      H4332   1.079       .  S
C4326      S4328   1.801       .  S
S4327      H4330   1.406       .  S
S4328      H4329   1.407       .  S
C4333      C4334   1.390       .  A
C4333      C4338   1.411       .  A
C4334      C4335   1.392       .  A
C4334      H4343   1.084       .  S
C4335      C4336   1.427       .  A
C4336      C4337   1.399       .  A
C4337      C4338   1.398       .  A
C4337      H4344   1.078       .  S
C4338      S4340   1.804       .  S
S4339      H4342   1.406       .  S
S4340      H4341   1.404       .  S
