geometry optimzed in LAMMPS
_audit_creation_date              2020-11-30 
_audit_creation_method            'lammps2cif' 
_symmetry_space_group_name_H-M    'P1' 
_symmetry_Int_Tables_number       1 
_symmetry_cell_setting            triclinic 
loop_ 
_symmetry_equiv_pos_as_xyz 
  x,y,z 
_cell_length_a                    33.282461397992996 
_cell_length_b                    32.94670463995756 
_cell_length_c                    22.358859562294974 
_cell_angle_alpha                 91.16927174700724 
_cell_angle_beta                  92.79325957137227 
_cell_angle_gamma                 120.9450191663461 
loop_ 
_atom_site_label 
_atom_site_type_symbol 
_atom_site_fract_x 
_atom_site_fract_y 
_atom_site_fract_z 
_atom_site_charge 
C1          C  0.23040690  0.11844542  0.02850404    -0.04130
C2          C  0.21905680  0.11324462  0.30301173    -0.04130
C3          C  0.10797149  0.22196157  0.80559351    -0.04130
C4          C  0.11974864  0.23608077  0.53074836    -0.04130
N5          N  0.02826019  0.33761199  0.05254010    -0.07760
N6          N  0.05998105  0.04798124  0.07414512    -0.59880
N7          N  0.26810879  0.23570898  0.98433625    -0.07440
N8          N  0.23386021  0.19371641  0.99811790    -0.62010
N9          N  0.30809769  0.23649698  0.98502281    -0.07040
N10         N  0.30145199  0.19477848  0.99885886    -0.59860
N11         N  0.31903104  0.33095999  0.05478348    -0.06720
N12         N  0.32200927  0.03547332  0.07850004    -0.62360
C13         C  0.03447284  0.06749317  0.08911826     0.94410
C14         C  0.25484840  0.16819212  0.00613152     0.94190
N15         N  0.22719906  0.30542061  0.85826323    -0.07950
N16         N  0.19279091  0.28965471  0.81612072    -0.60460
N17         N  0.26356382  0.03449229  0.98401839    -0.06070
N18         N  0.24712110  0.05074916  0.02509382    -0.61710
N19         N  0.27879775  0.06334216  0.93987420    -0.07980
N20         N  0.27283685  0.09956936  0.95034437    -0.60730
N21         N  0.21512768  0.27635754  0.90207896    -0.05710
N22         N  0.17135968  0.24052265  0.89078225    -0.61800
Mn23       Mn  0.26509992  0.30041908  0.98233263     1.18440
C24         C  0.15816246  0.24858210  0.83552582     0.96500
C25         C  0.25466764  0.09258585  0.00524074     0.97160
N26         N  0.06072569  0.27637956  0.89816906    -0.08000
N27         N  0.06868267  0.24135118  0.88853840    -0.64310
N28         N  0.12318821  0.06229470  0.93195699    -0.06800
N29         N  0.16736233  0.09763641  0.94157422    -0.64980
N30         N  0.11165017  0.03412323  0.97687272    -0.07500
N31         N  0.14705254  0.04906291  0.01738458    -0.64570
N32         N  0.07260947  0.30333424  0.85202866    -0.06400
N33         N  0.08762795  0.28664389  0.80988653    -0.65260
Mn34       Mn  0.04340782  0.30253808  0.97990541     1.10660
C35         C  0.08419867  0.24719334  0.83208273     0.97720
C36         C  0.18144969  0.08935112  0.99609534     0.97800
N37         N  0.03131126  0.10390642  0.85258769    -0.07510
N38         N  0.03817477  0.14600143  0.84014091    -0.62880
N39         N  0.01499287  0.00248103  0.78203254    -0.06830
N40         N  0.00485008  0.96024462  0.76117896    -0.59610
N41         N  0.30932170  0.00386497  0.78302227    -0.08140
N42         N  0.27317269  0.96278207  0.76196657    -0.62450
N43         N  0.07040164  0.10339620  0.84851585    -0.07130
N44         N  0.10428036  0.14502477  0.83232057    -0.59640
Mn45       Mn  0.29592203  0.03814854  0.85735412     1.20190
Mn46       Mn  0.07180392  0.03688971  0.85201303     1.10090
Cl47       Cl  0.33585945  0.00299766  0.91804868    -0.87610
C48         C  0.08390054  0.17155631  0.82754654     0.94730
C49         C  0.29123595  0.26872501  0.75095821     0.94520
N50         N  0.27441886  0.06389240  0.39450883    -0.07760
N51         N  0.26788192  0.09938122  0.38304753    -0.59880
N52         N  0.21784743  0.28292449  0.43951712    -0.07440
N53         N  0.17611906  0.24776158  0.45143637    -0.62010
N54         N  0.23448348  0.31628281  0.48242222    -0.07040
N55         N  0.20449294  0.30398524  0.52475905    -0.59860
N56         N  0.25385106  0.03054144  0.35121215    -0.06720
N57         N  0.23315441  0.04321596  0.30939731    -0.62360
C58         C  0.24297654  0.08698295  0.32887058     0.94410
C59         C  0.16838201  0.26053837  0.50595595     0.94190
N60         N  0.29711127  0.23193845  0.36282061    -0.07950
N61         N  0.28965977  0.18954595  0.34878603    -0.60460
N62         N  0.29337774  0.31086916  0.28080741    -0.06070
N63         N  0.29139966  0.00966627  0.25024236    -0.61710
N64         N  0.00268484  0.31726896  0.28218471    -0.07980
N65         N  0.03028476  0.02222063  0.25396292    -0.60730
N66         N  0.25700783  0.23102740  0.35916368    -0.05710
N67         N  0.22248786  0.18873217  0.33904593    -0.61800
Mn68       Mn  0.25432771  0.29561469  0.35734781     1.18440
C69         C  0.24326073  0.16290762  0.33319366     0.96500
C70         C  0.00172181  0.03777417  0.23567524     0.97160
N71         N  0.32815393  0.02796467  0.55474946    -0.08000
N72         N  0.29509036  0.99254351  0.58247592    -0.64310
N73         N  0.07760293  0.11531551  0.47970898    -0.06800
N74         N  0.11330057  0.15827231  0.49553843    -0.64980
N75         N  0.03804077  0.11543590  0.47800072    -0.07500
N76         N  0.04631553  0.15831024  0.49232216    -0.64570
N77         N  0.03240850  0.02397499  0.55358364    -0.06400
N78         N  0.02386386  0.98478609  0.57933525    -0.65260
Mn79       Mn  0.30289031  0.04963589  0.47797719     1.10660
C80         C  0.31274438  0.29847696  0.59544836     0.97720
C81         C  0.09359363  0.18526145  0.50190763     0.97800
N82         N  0.10154989  0.03175169  0.35016569    -0.07510
N83         N  0.13224235  0.04403529  0.30802580    -0.62880
N84         N  0.08149360  0.31578616  0.48241325    -0.06830
N85         N  0.10272148  0.30383643  0.52394634    -0.59610
N86         N  0.06296612  0.28351122  0.43805193    -0.08140
N87         N  0.07149719  0.24914502  0.44849199    -0.62450
N88         N  0.11843028  0.06420726  0.39465002    -0.07130
N89         N  0.16082841  0.09893689  0.38326143    -0.59640
Mn90       Mn  0.03237856  0.29780648  0.35706154     1.20190
Mn91       Mn  0.07913846  0.04859908  0.47889779     1.10090
Cl92       Cl  0.33420983  0.00666054  0.41745786    -0.87470
C93         C  0.16912094  0.08712300  0.32801547     0.94730
C94         C  0.09559711  0.26151892  0.50332278     0.94520
C95         C  0.23823652  0.23481021  0.63368562    -0.10800
C96         C  0.28432246  0.25064485  0.61717172     0.05400
C97         C  0.97291078  0.89389350  0.64187986    -0.04570
C98         C  0.95901670  0.87340300  0.69710023    -0.09020
C99         C  0.26346788  0.21885095  0.72608000     0.04510
C100        C  0.22570086  0.21187882  0.68781667    -0.04040
Br101      Br  0.16596110  0.15618170  0.69298879    -0.03740
H102        H  0.21408048  0.24098143  0.60705992     0.08420
H103        H  0.97942502  0.86138047  0.72183680     0.06440
Br104      Br  0.02055181  0.89122337  0.60446930    -0.04160
C105        C  0.06598864  0.11513165  0.21449080    -0.10800
C106        C  0.01731745  0.08389713  0.21426207     0.05400
C107        C  0.32082971  0.42345723  0.17254261    -0.04570
C108        C  0.34321418  0.45131506  0.12370664    -0.09020
C109        C  0.05052680  0.11794125  0.11105338     0.04510
C110        C  0.08265953  0.13740133  0.16156052    -0.04040
Br111      Br  0.12702209  0.20430818  0.16959477    -0.03740
H112        H  0.08972105  0.12023017  0.25268478     0.08420
H113        H  0.32181139  0.45053650  0.08587140     0.06440
Br114      Br  0.25361402  0.37847702  0.16235317    -0.04160
C115        C  0.13379214  0.26852606  0.70740225    -0.10800
C116        C  0.10856265  0.22401955  0.73382742     0.05400
C117        C  0.08595457  0.18444005  0.69108997    -0.04570
C118        C  0.09392951  0.18989252  0.62939506    -0.09020
C119        C  0.11970050  0.23432443  0.60265695     0.04510
C120        C  0.13986325  0.27428366  0.64501063    -0.04040
Br121      Br  0.17612711  0.33961155  0.62570967    -0.03740
H122        H  0.14908031  0.30060243  0.73567703     0.08420
H123        H  0.07643945  0.15735970  0.60205317     0.06440
Br124      Br  0.03875960  0.12053026  0.70670166    -0.04160
C125        C  0.26898308  0.14612308  0.13963336    -0.10800
C126        C  0.22860397  0.12220179  0.10002323     0.05400
C127        C  0.18768205  0.11199066  0.12815118    -0.04570
C128        C  0.18360382  0.10642273  0.19141348    -0.09020
C129        C  0.22320828  0.11936104  0.23175493     0.04510
C130        C  0.26727852  0.14421788  0.20344609    -0.04040
Br131      Br  0.32849542  0.17643879  0.24514075    -0.03740
H132        H  0.30251799  0.16708056  0.12088239     0.08420
H133        H  0.15048343  0.09709535  0.20928436     0.06440
Br134      Br  0.15408455  0.13651813  0.08777654    -0.04160
C135        C  0.23040860  0.45177949  0.02850508    -0.04130
C136        C  0.21905688  0.44657721  0.30301288    -0.04130
C137        C  0.10797193  0.55529452  0.80559167    -0.04130
C138        C  0.11974879  0.56941404  0.53074643    -0.04130
N139        N  0.02826090  0.67094538  0.05253773    -0.07760
N140        N  0.05998433  0.38131472  0.07415102    -0.59880
N141        N  0.26810965  0.56904224  0.98433458    -0.07440
N142        N  0.23386140  0.52704993  0.99811747    -0.62010
N143        N  0.30809863  0.56983040  0.98502122    -0.07040
N144        N  0.30145333  0.52811230  0.99885860    -0.59860
N145        N  0.31903173  0.66429331  0.05478104    -0.06720
N146        N  0.32201290  0.36880822  0.07850186    -0.62360
C147        C  0.03447615  0.40082782  0.08912124     0.94410
C148        C  0.25484987  0.50152599  0.00613195     0.94190
N149        N  0.22719957  0.63875350  0.85826089    -0.07950
N150        N  0.19279133  0.62298765  0.81611852    -0.60460
N151        N  0.26356650  0.36782694  0.98402054    -0.06070
N152        N  0.24712284  0.38408332  0.02509504    -0.61710
N153        N  0.27879986  0.39667620  0.93987562    -0.07980
N154        N  0.27283804  0.43290294  0.95034484    -0.60730
N155        N  0.21512825  0.60969053  0.90207672    -0.05710
N156        N  0.17136020  0.57385575  0.89078024    -0.61800
Mn157      Mn  0.26510053  0.63375221  0.98233035     1.18440
C158        C  0.15816289  0.58191517  0.83552386     0.96500
C159        C  0.25466849  0.42591955  0.00524075     0.97160
N160        N  0.06072601  0.60971269  0.89816669    -0.08000
N161        N  0.06868309  0.57468435  0.88853633    -0.64310
N162        N  0.12318953  0.39562818  0.93195986    -0.06800
N163        N  0.16736365  0.43096987  0.94157629    -0.64980
N164        N  0.11165190  0.36745685  0.97687577    -0.07500
N165        N  0.14705465  0.38239674  0.01738707    -0.64570
N166        N  0.07260961  0.63666717  0.85202607    -0.06400
N167        N  0.08762809  0.61997667  0.80988411    -0.65260
Mn168      Mn  0.04340836  0.63587138  0.97990302     1.10660
C169        C  0.08419901  0.58052628  0.83208066     0.97720
C170        C  0.18145142  0.42268487  0.99609717     0.97800
N171        N  0.03131273  0.43723977  0.85258837    -0.07510
N172        N  0.03817566  0.47933430  0.84013999    -0.62880
N173        N  0.01499579  0.33581497  0.78203406    -0.06830
N174        N  0.00485452  0.29357967  0.76117774    -0.59610
N175        N  0.30932396  0.33719755  0.78302471    -0.08140
N176        N  0.27317574  0.29611455  0.76196802    -0.62450
N177        N  0.07040333  0.43672990  0.84851711    -0.07130
N178        N  0.10428163  0.47835825  0.83232052    -0.59640
Mn179      Mn  0.29592382  0.37148164  0.85735589     1.20190
Mn180      Mn  0.07180564  0.37022336  0.85201587     1.10090
Cl181      Cl  0.33586137  0.33633156  0.91805187    -0.87610
C182        C  0.08390130  0.50488929  0.82754514     0.94730
C183        C  0.29123653  0.60205839  0.75095449     0.94520
N184        N  0.27441874  0.39722514  0.39451133    -0.07760
N185        N  0.26788206  0.43271405  0.38304928    -0.59880
N186        N  0.21784734  0.61625796  0.43951477    -0.07440
N187        N  0.17611908  0.58109494  0.45143424    -0.62010
N188        N  0.23448341  0.64961629  0.48241985    -0.07040
N189        N  0.20449301  0.63731864  0.52475687    -0.59860
N190        N  0.25385078  0.36387389  0.35121506    -0.06720
N191        N  0.23315428  0.37654826  0.30939975    -0.62360
C192        C  0.24297662  0.42031550  0.32887229     0.94410
C193        C  0.16838214  0.59387168  0.50595393     0.94190
N194        N  0.29711118  0.56527166  0.36281950    -0.07950
N195        N  0.28965959  0.52287882  0.34878688    -0.60460
N196        N  0.29337782  0.64420245  0.28080518    -0.06070
N197        N  0.29139874  0.34299857  0.25024496    -0.61710
N198        N  0.00268487  0.65060212  0.28218250    -0.07980
N199        N  0.03028356  0.35555242  0.25396378    -0.60730
N200        N  0.25700775  0.56436061  0.35916199    -0.05710
N201        N  0.22248769  0.52206498  0.33904554    -0.61800
Mn202      Mn  0.25432771  0.62894809  0.35734552     1.18440
C203        C  0.24326051  0.49624022  0.33319487     0.96500
C204        C  0.00172056  0.37110609  0.23567594     0.97160
N205        N  0.32815471  0.36129759  0.55475215    -0.08000
N206        N  0.29509066  0.32587584  0.58247730    -0.64310
N207        N  0.07760315  0.44864836  0.47970998    -0.06800
N208        N  0.11330089  0.49160549  0.49553775    -0.64980
N209        N  0.03804099  0.44876868  0.47800184    -0.07500
N210        N  0.04631578  0.49164326  0.49232159    -0.64570
N211        N  0.03240887  0.35730719  0.55358547    -0.06400
N212        N  0.02386324  0.31811697  0.57933464    -0.65260
Mn213      Mn  0.30289067  0.38296896  0.47797991     1.10660
C214        C  0.31274410  0.63180947  0.59544488     0.97720
C215        C  0.09359391  0.51859469  0.50190599     0.97800
N216        N  0.10154999  0.36508394  0.35016739    -0.07510
N217        N  0.13224239  0.37736737  0.30802739    -0.62880
N218        N  0.08149386  0.64911945  0.48241096    -0.06830
N219        N  0.10272172  0.63716974  0.52394411    -0.59610
N220        N  0.06296628  0.61684442  0.43804978    -0.08140
N221        N  0.07149726  0.58247815  0.44848996    -0.62450
N222        N  0.11843031  0.39753986  0.39465132    -0.07130
N223        N  0.16082823  0.43226962  0.38326222    -0.59640
Mn224      Mn  0.03237863  0.63113965  0.35705950     1.20190
Mn225      Mn  0.07913882  0.38193201  0.47889953     1.10090
Cl226      Cl  0.33421001  0.33999327  0.41746060    -0.87470
C227        C  0.16912083  0.42045545  0.32801645     0.94730
C228        C  0.09559726  0.59485216  0.50332070     0.94520
C229        C  0.23823636  0.56814285  0.63368221    -0.10800
C230        C  0.28432206  0.58397718  0.61716762     0.05400
C231        C  0.97290937  0.22722311  0.64187185    -0.04570
C232        C  0.95902101  0.20673729  0.69709582    -0.09020
C233        C  0.26346850  0.55218430  0.72607650     0.04510
C234        C  0.22570117  0.54521190  0.68781358    -0.04040
Br235      Br  0.16596166  0.48951453  0.69298612    -0.03740
H236        H  0.21408016  0.57431397  0.60705675     0.08420
H237        H  0.97942776  0.19471106  0.72182828     0.06440
Br238      Br  0.02052849  0.22452811  0.60443484    -0.04160
C239        C  0.06598782  0.44846316  0.21449592    -0.10800
C240        C  0.01731550  0.41722926  0.21426082     0.05400
C241        C  0.32082997  0.75679041  0.17253928    -0.04570
C242        C  0.34321371  0.78464822  0.12370198    -0.09020
C243        C  0.05053093  0.45127652  0.11105578     0.04510
C244        C  0.08266042  0.47073412  0.16156615    -0.04040
Br245      Br  0.12703279  0.53763835  0.16961395    -0.03740
H246        H  0.08971136  0.45355837  0.25268056     0.08420
H247        H  0.32181623  0.78386979  0.08587513     0.06440
Br248      Br  0.25361433  0.71181028  0.16235036    -0.04160
C249        C  0.13379219  0.60185910  0.70740039    -0.10800
C250        C  0.10856303  0.55735253  0.73382559     0.05400
C251        C  0.08595507  0.51777306  0.69108819    -0.04570
C252        C  0.09392969  0.52322566  0.62939322    -0.09020
C253        C  0.11970045  0.56765763  0.60265505     0.04510
C254        C  0.13986307  0.60761679  0.64500875    -0.04040
Br255      Br  0.17612687  0.67294468  0.62570775    -0.03740
H256        H  0.14908040  0.63393547  0.73567520     0.08420
H257        H  0.07643978  0.49069281  0.60205144     0.06440
Br258      Br  0.03876116  0.45386296  0.70670040    -0.04160
C259        C  0.26898474  0.47945673  0.13963472    -0.10800
C260        C  0.22860562  0.45553611  0.10002429     0.05400
C261        C  0.18768386  0.44532612  0.12815185    -0.04570
C262        C  0.18360498  0.43975751  0.19141414    -0.09020
C263        C  0.22320900  0.45269436  0.23175598     0.04510
C264        C  0.26727954  0.47755119  0.20344759    -0.04040
Br265      Br  0.32849628  0.50977211  0.24514275    -0.03740
H266        H  0.30251895  0.50041313  0.12088509     0.08420
H267        H  0.15048486  0.43043067  0.20928472     0.06440
Br268      Br  0.15408645  0.46985356  0.08777576    -0.04160
C269        C  0.23040852  0.78511224  0.02850229    -0.04130
C270        C  0.21905712  0.77991098  0.30301023    -0.04130
C271        C  0.10797087  0.88862784  0.80558940    -0.04130
C272        C  0.11974889  0.90274714  0.53074442    -0.04130
N273        N  0.02825732  0.00427834  0.05253495    -0.07760
N274        N  0.05998500  0.71464818  0.07414847    -0.59880
N275        N  0.26810771  0.90237463  0.98433214    -0.07440
N276        N  0.23385995  0.86038201  0.99811484    -0.62010
N277        N  0.30809694  0.90316332  0.98501842    -0.07040
N278        N  0.30145238  0.86144544  0.99885547    -0.59860
N279        N  0.31902797  0.99762557  0.05478026    -0.06720
N280        N  0.32201353  0.70214159  0.07849908    -0.62360
C281        C  0.03447673  0.73416131  0.08911832     0.94410
C282        C  0.25484906  0.83485861  0.00612898     0.94190
N283        N  0.22719741  0.97208750  0.85826093    -0.07950
N284        N  0.19278939  0.95632206  0.81611844    -0.60460
N285        N  0.26356681  0.70115992  0.98401801    -0.06070
N286        N  0.24712295  0.71741620  0.02509233    -0.61710
N287        N  0.27880010  0.73000913  0.93987304    -0.07980
N288        N  0.27283811  0.76623578  0.95034210    -0.60730
N289        N  0.21512630  0.94302337  0.90207542    -0.05710
N290        N  0.17135868  0.90718810  0.89077790    -0.61800
Mn291      Mn  0.26509766  0.96708443  0.98232926     1.18440
C292        C  0.15816144  0.91524860  0.83552222     0.96500
C293        C  0.25466846  0.75925237  0.00523789     0.97160
N294        N  0.06072467  0.94304587  0.89816485    -0.08000
N295        N  0.06868155  0.90801741  0.88853398    -0.64310
N296        N  0.12318971  0.72896114  0.93195700    -0.06800
N297        N  0.16736386  0.76430267  0.94157340    -0.64980
N298        N  0.11165206  0.70078988  0.97687297    -0.07500
N299        N  0.14705472  0.71572963  0.01738432    -0.64570
N300        N  0.07260839  0.97000057  0.85202449    -0.06400
N301        N  0.08762690  0.95331022  0.80988223    -0.65260
Mn302      Mn  0.04340616  0.96920443  0.97990120     1.10660
C303        C  0.08419754  0.91385948  0.83207826     0.97720
C304        C  0.18145150  0.75601763  0.99609436     0.97800
N305        N  0.03131275  0.77057279  0.85258608    -0.07510
N306        N  0.03817533  0.81266730  0.84013839    -0.62880
N307        N  0.01499618  0.66914821  0.78203101    -0.06830
N308        N  0.00485509  0.62691310  0.76117410    -0.59610
N309        N  0.30932429  0.67053063  0.78302196    -0.08140
N310        N  0.27317615  0.62944770  0.76196495    -0.62450
N311        N  0.07040336  0.77006309  0.84851388    -0.07130
N312        N  0.10428125  0.81169152  0.83231685    -0.59640
Mn313      Mn  0.29592410  0.70481456  0.85735343     1.20190
Mn314      Mn  0.07180588  0.70355645  0.85201293     1.10090
Cl315      Cl  0.33586178  0.66966465  0.91804932    -0.87610
C316        C  0.08390069  0.83822245  0.82754253     0.94730
C317        C  0.29123142  0.93539083  0.75095978     0.94520
N318        N  0.27441894  0.73055884  0.39450894    -0.07760
N319        N  0.26788235  0.76604784  0.38304685    -0.59880
N320        N  0.21784716  0.94959150  0.43951252    -0.07440
N321        N  0.17611866  0.91442854  0.45143127    -0.62010
N322        N  0.23448332  0.98294944  0.48241813    -0.07040
N323        N  0.20449278  0.97065151  0.52475485    -0.59860
N324        N  0.25385102  0.69720761  0.35121261    -0.06720
N325        N  0.23315465  0.70988210  0.30939725    -0.62360
C326        C  0.24297699  0.75364936  0.32886978     0.94410
C327        C  0.16838175  0.92720497  0.50595110     0.94190
N328        N  0.29711111  0.89860571  0.36281677    -0.07950
N329        N  0.28965976  0.85621303  0.34878368    -0.60460
N330        N  0.29337819  0.97753655  0.28080422    -0.06070
N331        N  0.29139887  0.67633181  0.25024251    -0.61710
N332        N  0.00268544  0.98393666  0.28218240    -0.07980
N333        N  0.03028359  0.68888544  0.25396127    -0.60730
N334        N  0.25700760  0.89769448  0.35915924    -0.05710
N335        N  0.22248766  0.85539882  0.33904256    -0.61800
Mn336      Mn  0.25432771  0.96228202  0.35734390     1.18440
C337        C  0.24326067  0.82957422  0.33319177     0.96500
C338        C  0.00172066  0.70443917  0.23567322     0.97160
N339        N  0.32815467  0.69463055  0.55474962    -0.08000
N340        N  0.29509049  0.65920853  0.58247428    -0.64310
N341        N  0.07760318  0.78198160  0.47970774    -0.06800
N342        N  0.11330092  0.82493871  0.49553552    -0.64980
N343        N  0.03804103  0.78210196  0.47799970    -0.07500
N344        N  0.04631581  0.82497653  0.49231958    -0.64570
N345        N  0.03240882  0.69064011  0.55358286    -0.06400
N346        N  0.02386303  0.65144961  0.57933143    -0.65260
Mn347      Mn  0.30289072  0.71630233  0.47797758     1.10660
C348        C  0.31274508  0.96514588  0.59544942     0.97720
C349        C  0.09359396  0.85192792  0.50190387     0.97800
N350        N  0.10155025  0.69841728  0.35016505    -0.07510
N351        N  0.13224265  0.71070083  0.30802499    -0.62880
N352        N  0.08149314  0.98245281  0.48241102    -0.06830
N353        N  0.10272109  0.97050278  0.52394374    -0.59610
N354        N  0.06296570  0.95017811  0.43804939    -0.08140
N355        N  0.07149663  0.91581172  0.44848913    -0.62450
N356        N  0.11843053  0.73087328  0.39464890    -0.07130
N357        N  0.16082837  0.76560320  0.38325966    -0.59640
Mn358      Mn  0.03237855  0.96447398  0.35705896     1.20190
Mn359      Mn  0.07913895  0.71526527  0.47889715     1.10090
Cl360      Cl  0.33421009  0.67332660  0.41745829    -0.87470
C361        C  0.16912101  0.75378906  0.32801389     0.94730
C362        C  0.09559638  0.92818508  0.50332007     0.94520
C363        C  0.23823641  0.90147803  0.63368462    -0.10800
C364        C  0.28432414  0.91731469  0.61717621     0.05400
C365        C  0.97290904  0.56055548  0.64186755    -0.04570
C366        C  0.95902145  0.54007048  0.69709211    -0.09020
C367        C  0.26346258  0.88551674  0.72608123     0.04510
C368        C  0.22569753  0.87854529  0.68781456    -0.04040
Br369      Br  0.16595843  0.82284586  0.69297978    -0.03740
H370        H  0.21408143  0.90764891  0.60705594     0.08420
H371        H  0.97942812  0.52804403  0.72182427     0.06440
Br372      Br  0.02052572  0.55785757  0.60442776    -0.04160
C373        C  0.06598801  0.78179615  0.21449314    -0.10800
C374        C  0.01731556  0.75056228  0.21425745     0.05400
C375        C  0.32082898  0.09012357  0.17254487    -0.04570
C376        C  0.34321852  0.11798172  0.12371979    -0.09020
C377        C  0.05053148  0.78461005  0.11105278     0.04510
C378        C  0.08266065  0.80406740  0.16156344    -0.04040
Br379      Br  0.12703414  0.87097133  0.16961261    -0.03740
H380        H  0.08971060  0.78689101  0.25267658     0.08420
H381        H  0.32177009  0.11720169  0.08581432     0.06440
Br382      Br  0.25361282  0.04514279  0.16235300    -0.04160
C383        C  0.13379385  0.93519237  0.70739827    -0.10800
C384        C  0.10856312  0.89068597  0.73382338     0.05400
C385        C  0.08595478  0.85110652  0.69108600    -0.04570
C386        C  0.09393076  0.85655864  0.62939122    -0.09020
C387        C  0.11970262  0.90099056  0.60265305     0.04510
C388        C  0.13986609  0.94094987  0.64500684    -0.04040
Br389      Br  0.17612927  0.00627783  0.62570586    -0.03740
H390        H  0.14908125  0.96726882  0.73567273     0.08420
H391        H  0.07643990  0.82402578  0.60204944     0.06440
Br392      Br  0.03875615  0.78719818  0.70669765    -0.04160
C393        C  0.26898484  0.81278974  0.13963187    -0.10800
C394        C  0.22860565  0.78886897  0.10002152     0.05400
C395        C  0.18768396  0.77865917  0.12814910    -0.04570
C396        C  0.18360515  0.77309084  0.19141145    -0.09020
C397        C  0.22320919  0.78602779  0.23175327     0.04510
C398        C  0.26727970  0.81088441  0.20344479    -0.04040
Br399      Br  0.32849648  0.84310524  0.24513990    -0.03740
H400        H  0.30251891  0.83374601  0.12088226     0.08420
H401        H  0.15048509  0.76376416  0.20928203     0.06440
Br402      Br  0.15408670  0.80318669  0.08777287    -0.04160
C403        C  0.56374023  0.11844542  0.02850404    -0.04130
C404        C  0.55239013  0.11324462  0.30301173    -0.04130
C405        C  0.44130483  0.22196157  0.80559351    -0.04130
C406        C  0.45308197  0.23608077  0.53074836    -0.04130
N407        N  0.36159352  0.33761199  0.05254010    -0.07760
N408        N  0.39331438  0.04798124  0.07414512    -0.59880
N409        N  0.60144212  0.23570898  0.98433625    -0.07440
N410        N  0.56719354  0.19371641  0.99811790    -0.62010
N411        N  0.64143102  0.23649698  0.98502281    -0.07040
N412        N  0.63478533  0.19477848  0.99885886    -0.59860
N413        N  0.65236438  0.33095999  0.05478348    -0.06720
N414        N  0.65534261  0.03547332  0.07850004    -0.62360
C415        C  0.36780617  0.06749317  0.08911826     0.94410
C416        C  0.58818174  0.16819212  0.00613152     0.94190
N417        N  0.56053240  0.30542061  0.85826323    -0.07950
N418        N  0.52612425  0.28965471  0.81612072    -0.60460
N419        N  0.59689715  0.03449229  0.98401839    -0.06070
N420        N  0.58045443  0.05074916  0.02509382    -0.61710
N421        N  0.61213108  0.06334216  0.93987420    -0.07980
N422        N  0.60617018  0.09956936  0.95034437    -0.60730
N423        N  0.54846101  0.27635754  0.90207896    -0.05710
N424        N  0.50469302  0.24052265  0.89078225    -0.61800
Mn425      Mn  0.59843326  0.30041908  0.98233263     1.18440
C426        C  0.49149580  0.24858210  0.83552582     0.96500
C427        C  0.58800098  0.09258585  0.00524074     0.97160
N428        N  0.39405903  0.27637956  0.89816906    -0.08000
N429        N  0.40201600  0.24135118  0.88853840    -0.64310
N430        N  0.45652155  0.06229470  0.93195699    -0.06800
N431        N  0.50069566  0.09763641  0.94157422    -0.64980
N432        N  0.44498351  0.03412323  0.97687272    -0.07500
N433        N  0.48038588  0.04906291  0.01738458    -0.64570
N434        N  0.40594280  0.30333424  0.85202865    -0.06400
N435        N  0.42096128  0.28664389  0.80988653    -0.65260
Mn436      Mn  0.37674115  0.30253808  0.97990541     1.10660
C437        C  0.41753201  0.24719333  0.83208273     0.97720
C438        C  0.51478303  0.08935112  0.99609534     0.97800
N439        N  0.36464459  0.10390642  0.85258769    -0.07510
N440        N  0.37150810  0.14600143  0.84014091    -0.62880
N441        N  0.34832620  0.00248103  0.78203254    -0.06830
N442        N  0.33818342  0.96024462  0.76117896    -0.59610
N443        N  0.64265503  0.00386497  0.78302227    -0.08140
N444        N  0.60650603  0.96278207  0.76196657    -0.62450
N445        N  0.40373497  0.10339620  0.84851585    -0.07130
N446        N  0.43761369  0.14502477  0.83232057    -0.59640
Mn447      Mn  0.62925537  0.03814854  0.85735412     1.20190
Mn448      Mn  0.40513726  0.03688971  0.85201303     1.10090
Cl449      Cl  0.66919279  0.00299766  0.91804868    -0.87610
C450        C  0.41723387  0.17155631  0.82754654     0.94730
C451        C  0.62456928  0.26872500  0.75095821     0.94520
N452        N  0.60775219  0.06389240  0.39450883    -0.07760
N453        N  0.60121526  0.09938122  0.38304753    -0.59880
N454        N  0.55118076  0.28292449  0.43951712    -0.07440
N455        N  0.50945239  0.24776158  0.45143637    -0.62010
N456        N  0.56781681  0.31628281  0.48242222    -0.07040
N457        N  0.53782628  0.30398524  0.52475905    -0.59860
N458        N  0.58718439  0.03054144  0.35121216    -0.06720
N459        N  0.56648775  0.04321596  0.30939731    -0.62360
C460        C  0.57630987  0.08698295  0.32887058     0.94410
C461        C  0.50171534  0.26053837  0.50595595     0.94190
N462        N  0.63044460  0.23193845  0.36282061    -0.07950
N463        N  0.62299311  0.18954595  0.34878603    -0.60460
N464        N  0.62671107  0.31086916  0.28080741    -0.06070
N465        N  0.62473299  0.00966627  0.25024236    -0.61710
N466        N  0.33601817  0.31726896  0.28218471    -0.07980
N467        N  0.36361809  0.02222063  0.25396292    -0.60730
N468        N  0.59034116  0.23102740  0.35916368    -0.05710
N469        N  0.55582119  0.18873217  0.33904593    -0.61800
Mn470      Mn  0.58766104  0.29561469  0.35734781     1.18440
C471        C  0.57659406  0.16290762  0.33319366     0.96500
C472        C  0.33505514  0.03777417  0.23567524     0.97160
N473        N  0.66148726  0.02796467  0.55474946    -0.08000
N474        N  0.62842369  0.99254351  0.58247592    -0.64310
N475        N  0.41093626  0.11531551  0.47970898    -0.06800
N476        N  0.44663390  0.15827231  0.49553843    -0.64980
N477        N  0.37137411  0.11543590  0.47800072    -0.07500
N478        N  0.37964887  0.15831024  0.49232216    -0.64570
N479        N  0.36574183  0.02397498  0.55358364    -0.06400
N480        N  0.35719719  0.98478609  0.57933525    -0.65260
Mn481      Mn  0.63622364  0.04963589  0.47797719     1.10660
C482        C  0.64607771  0.29847696  0.59544837     0.97720
C483        C  0.42692696  0.18526145  0.50190763     0.97800
N484        N  0.43488322  0.03175169  0.35016569    -0.07510
N485        N  0.46557568  0.04403529  0.30802580    -0.62880
N486        N  0.41482693  0.31578616  0.48241325    -0.06830
N487        N  0.43605482  0.30383643  0.52394634    -0.59610
N488        N  0.39629945  0.28351122  0.43805193    -0.08140
N489        N  0.40483052  0.24914502  0.44849199    -0.62450
N490        N  0.45176361  0.06420726  0.39465002    -0.07130
N491        N  0.49416174  0.09893689  0.38326143    -0.59640
Mn492      Mn  0.36571190  0.29780648  0.35706154     1.20190
Mn493      Mn  0.41247179  0.04859908  0.47889779     1.10090
Cl494      Cl  0.66754317  0.00666054  0.41745786    -0.87470
C495        C  0.50245427  0.08712300  0.32801547     0.94730
C496        C  0.42893045  0.26151892  0.50332278     0.94520
C497        C  0.57156985  0.23481021  0.63368562    -0.10800
C498        C  0.61765579  0.25064485  0.61717173     0.05400
C499        C  0.30624411  0.89389350  0.64187986    -0.04570
C500        C  0.29235003  0.87340300  0.69710022    -0.09020
C501        C  0.59680121  0.21885095  0.72608000     0.04510
C502        C  0.55903420  0.21187882  0.68781667    -0.04040
Br503      Br  0.49929443  0.15618169  0.69298879    -0.03740
H504        H  0.54741382  0.24098143  0.60705992     0.08420
H505        H  0.31275836  0.86138047  0.72183680     0.06440
Br506      Br  0.35388514  0.89122336  0.60446929    -0.04160
C507        C  0.39932197  0.11513165  0.21449080    -0.10800
C508        C  0.35065078  0.08389713  0.21426207     0.05400
C509        C  0.65416304  0.42345723  0.17254261    -0.04570
C510        C  0.67654752  0.45131506  0.12370664    -0.09020
C511        C  0.38386013  0.11794125  0.11105338     0.04510
C512        C  0.41599287  0.13740133  0.16156052    -0.04040
Br513      Br  0.46035543  0.20430818  0.16959477    -0.03740
H514        H  0.42305438  0.12023017  0.25268477     0.08420
H515        H  0.65514472  0.45053650  0.08587139     0.06440
Br516      Br  0.58694735  0.37847702  0.16235317    -0.04160
C517        C  0.46712547  0.26852606  0.70740225    -0.10800
C518        C  0.44189599  0.22401955  0.73382742     0.05400
C519        C  0.41928790  0.18444005  0.69108997    -0.04570
C520        C  0.42726285  0.18989252  0.62939506    -0.09020
C521        C  0.45303383  0.23432443  0.60265695     0.04510
C522        C  0.47319659  0.27428366  0.64501063    -0.04040
Br523      Br  0.50946044  0.33961155  0.62570967    -0.03740
H524        H  0.48241365  0.30060243  0.73567703     0.08420
H525        H  0.40977278  0.15735970  0.60205317     0.06440
Br526      Br  0.37209293  0.12053026  0.70670166    -0.04160
C527        C  0.60231641  0.14612308  0.13963336    -0.10800
C528        C  0.56193731  0.12220179  0.10002323     0.05400
C529        C  0.52101539  0.11199066  0.12815118    -0.04570
C530        C  0.51693715  0.10642273  0.19141348    -0.09020
C531        C  0.55654162  0.11936104  0.23175493     0.04510
C532        C  0.60061186  0.14421788  0.20344609    -0.04040
Br533      Br  0.66182875  0.17643879  0.24514075    -0.03740
H534        H  0.63585133  0.16708056  0.12088239     0.08420
H535        H  0.48381677  0.09709535  0.20928436     0.06440
Br536      Br  0.48741788  0.13651813  0.08777654    -0.04160
C537        C  0.56374193  0.45177949  0.02850508    -0.04130
C538        C  0.55239021  0.44657721  0.30301288    -0.04130
C539        C  0.44130527  0.55529452  0.80559167    -0.04130
C540        C  0.45308212  0.56941404  0.53074643    -0.04130
N541        N  0.36159424  0.67094538  0.05253773    -0.07760
N542        N  0.39331766  0.38131472  0.07415102    -0.59880
N543        N  0.60144299  0.56904224  0.98433458    -0.07440
N544        N  0.56719473  0.52704993  0.99811747    -0.62010
N545        N  0.64143196  0.56983040  0.98502122    -0.07040
N546        N  0.63478667  0.52811230  0.99885860    -0.59860
N547        N  0.65236507  0.66429331  0.05478104    -0.06720
N548        N  0.65534623  0.36880822  0.07850186    -0.62360
C549        C  0.36780949  0.40082782  0.08912124     0.94410
C550        C  0.58818320  0.50152599  0.00613195     0.94190
N551        N  0.56053290  0.63875350  0.85826089    -0.07950
N552        N  0.52612467  0.62298765  0.81611851    -0.60460
N553        N  0.59689983  0.36782694  0.98402054    -0.06070
N554        N  0.58045618  0.38408332  0.02509504    -0.61710
N555        N  0.61213319  0.39667620  0.93987562    -0.07980
N556        N  0.60617137  0.43290294  0.95034484    -0.60730
N557        N  0.54846159  0.60969053  0.90207672    -0.05710
N558        N  0.50469354  0.57385575  0.89078024    -0.61800
Mn559      Mn  0.59843387  0.63375221  0.98233035     1.18440
C560        C  0.49149623  0.58191517  0.83552386     0.96500
C561        C  0.58800182  0.42591955  0.00524075     0.97160
N562        N  0.39405934  0.60971269  0.89816669    -0.08000
N563        N  0.40201643  0.57468435  0.88853633    -0.64310
N564        N  0.45652286  0.39562818  0.93195986    -0.06800
N565        N  0.50069698  0.43096987  0.94157629    -0.64980
N566        N  0.44498524  0.36745685  0.97687577    -0.07500
N567        N  0.48038798  0.38239674  0.01738707    -0.64570
N568        N  0.40594295  0.63666717  0.85202607    -0.06400
N569        N  0.42096142  0.61997667  0.80988411    -0.65260
Mn570      Mn  0.37674169  0.63587138  0.97990302     1.10660
C571        C  0.41753234  0.58052628  0.83208066     0.97720
C572        C  0.51478476  0.42268487  0.99609717     0.97800
N573        N  0.36464606  0.43723977  0.85258837    -0.07510
N574        N  0.37150899  0.47933430  0.84013999    -0.62880
N575        N  0.34832912  0.33581497  0.78203406    -0.06830
N576        N  0.33818786  0.29357967  0.76117774    -0.59610
N577        N  0.64265729  0.33719755  0.78302471    -0.08140
N578        N  0.60650907  0.29611455  0.76196802    -0.62450
N579        N  0.40373666  0.43672990  0.84851711    -0.07130
N580        N  0.43761496  0.47835825  0.83232052    -0.59640
Mn581      Mn  0.62925716  0.37148164  0.85735589     1.20190
Mn582      Mn  0.40513897  0.37022336  0.85201587     1.10090
Cl583      Cl  0.66919471  0.33633156  0.91805187    -0.87610
C584        C  0.41723463  0.50488929  0.82754514     0.94730
C585        C  0.62456986  0.60205839  0.75095449     0.94520
N586        N  0.60775208  0.39722514  0.39451133    -0.07760
N587        N  0.60121539  0.43271405  0.38304928    -0.59880
N588        N  0.55118068  0.61625796  0.43951477    -0.07440
N589        N  0.50945242  0.58109494  0.45143424    -0.62010
N590        N  0.56781675  0.64961629  0.48241985    -0.07040
N591        N  0.53782634  0.63731864  0.52475687    -0.59860
N592        N  0.58718411  0.36387389  0.35121505    -0.06720
N593        N  0.56648761  0.37654826  0.30939975    -0.62360
C594        C  0.57630995  0.42031550  0.32887229     0.94410
C595        C  0.50171547  0.59387168  0.50595393     0.94190
N596        N  0.63044451  0.56527166  0.36281950    -0.07950
N597        N  0.62299292  0.52287882  0.34878688    -0.60460
N598        N  0.62671115  0.64420245  0.28080518    -0.06070
N599        N  0.62473207  0.34299857  0.25024496    -0.61710
N600        N  0.33601821  0.65060212  0.28218250    -0.07980
N601        N  0.36361690  0.35555242  0.25396378    -0.60730
N602        N  0.59034108  0.56436061  0.35916199    -0.05710
N603        N  0.55582102  0.52206498  0.33904554    -0.61800
Mn604      Mn  0.58766105  0.62894809  0.35734552     1.18440
C605        C  0.57659384  0.49624022  0.33319487     0.96500
C606        C  0.33505389  0.37110609  0.23567594     0.97160
N607        N  0.66148804  0.36129760  0.55475215    -0.08000
N608        N  0.62842399  0.32587584  0.58247730    -0.64310
N609        N  0.41093649  0.44864836  0.47970998    -0.06800
N610        N  0.44663422  0.49160549  0.49553775    -0.64980
N611        N  0.37137432  0.44876868  0.47800184    -0.07500
N612        N  0.37964911  0.49164326  0.49232159    -0.64570
N613        N  0.36574220  0.35730719  0.55358547    -0.06400
N614        N  0.35719657  0.31811697  0.57933464    -0.65260
Mn615      Mn  0.63622401  0.38296896  0.47797991     1.10660
C616        C  0.64607743  0.63180947  0.59544488     0.97720
C617        C  0.42692725  0.51859469  0.50190599     0.97800
N618        N  0.43488332  0.36508394  0.35016739    -0.07510
N619        N  0.46557573  0.37736737  0.30802739    -0.62880
N620        N  0.41482720  0.64911945  0.48241096    -0.06830
N621        N  0.43605505  0.63716974  0.52394411    -0.59610
N622        N  0.39629961  0.61684442  0.43804978    -0.08140
N623        N  0.40483059  0.58247815  0.44848996    -0.62450
N624        N  0.45176364  0.39753986  0.39465132    -0.07130
N625        N  0.49416156  0.43226962  0.38326222    -0.59640
Mn626      Mn  0.36571196  0.63113965  0.35705950     1.20190
Mn627      Mn  0.41247216  0.38193201  0.47889953     1.10090
Cl628      Cl  0.66754335  0.33999327  0.41746060    -0.87470
C629        C  0.50245416  0.42045545  0.32801645     0.94730
C630        C  0.42893060  0.59485216  0.50332070     0.94520
C631        C  0.57156970  0.56814285  0.63368221    -0.10800
C632        C  0.61765539  0.58397718  0.61716761     0.05400
C633        C  0.30624270  0.22722311  0.64187185    -0.04570
C634        C  0.29235435  0.20673729  0.69709582    -0.09020
C635        C  0.59680183  0.55218430  0.72607650     0.04510
C636        C  0.55903450  0.54521190  0.68781358    -0.04040
Br637      Br  0.49929499  0.48951453  0.69298612    -0.03740
H638        H  0.54741349  0.57431397  0.60705675     0.08420
H639        H  0.31276109  0.19471106  0.72182828     0.06440
Br640      Br  0.35386182  0.22452811  0.60443484    -0.04160
C641        C  0.39932116  0.44846316  0.21449592    -0.10800
C642        C  0.35064883  0.41722926  0.21426082     0.05400
C643        C  0.65416330  0.75679041  0.17253928    -0.04570
C644        C  0.67654704  0.78464822  0.12370198    -0.09020
C645        C  0.38386426  0.45127652  0.11105578     0.04510
C646        C  0.41599376  0.47073412  0.16156615    -0.04040
Br647      Br  0.46036612  0.53763835  0.16961396    -0.03740
H648        H  0.42304469  0.45355837  0.25268056     0.08420
H649        H  0.65514957  0.78386979  0.08587514     0.06440
Br650      Br  0.58694766  0.71181028  0.16235036    -0.04160
C651        C  0.46712552  0.60185910  0.70740039    -0.10800
C652        C  0.44189637  0.55735253  0.73382559     0.05400
C653        C  0.41928841  0.51777306  0.69108819    -0.04570
C654        C  0.42726303  0.52322566  0.62939322    -0.09020
C655        C  0.45303378  0.56765763  0.60265505     0.04510
C656        C  0.47319641  0.60761679  0.64500875    -0.04040
Br657      Br  0.50946020  0.67294468  0.62570775    -0.03740
H658        H  0.48241374  0.63393547  0.73567520     0.08420
H659        H  0.40977312  0.49069281  0.60205144     0.06440
Br660      Br  0.37209450  0.45386296  0.70670040    -0.04160
C661        C  0.60231807  0.47945673  0.13963472    -0.10800
C662        C  0.56193896  0.45553611  0.10002429     0.05400
C663        C  0.52101720  0.44532612  0.12815185    -0.04570
C664        C  0.51693832  0.43975751  0.19141414    -0.09020
C665        C  0.55654233  0.45269436  0.23175598     0.04510
C666        C  0.60061287  0.47755119  0.20344759    -0.04040
Br667      Br  0.66182962  0.50977211  0.24514275    -0.03740
H668        H  0.63585228  0.50041313  0.12088509     0.08420
H669        H  0.48381819  0.43043067  0.20928472     0.06440
Br670      Br  0.48741978  0.46985356  0.08777576    -0.04160
C671        C  0.56374185  0.78511224  0.02850229    -0.04130
C672        C  0.55239045  0.77991098  0.30301023    -0.04130
C673        C  0.44130420  0.88862784  0.80558940    -0.04130
C674        C  0.45308223  0.90274714  0.53074442    -0.04130
N675        N  0.36159065  0.00427834  0.05253495    -0.07760
N676        N  0.39331834  0.71464818  0.07414847    -0.59880
N677        N  0.60144104  0.90237463  0.98433214    -0.07440
N678        N  0.56719328  0.86038201  0.99811484    -0.62010
N679        N  0.64143028  0.90316332  0.98501842    -0.07040
N680        N  0.63478571  0.86144544  0.99885547    -0.59860
N681        N  0.65236130  0.99762557  0.05478026    -0.06720
N682        N  0.65534687  0.70214159  0.07849908    -0.62360
C683        C  0.36781006  0.73416131  0.08911832     0.94410
C684        C  0.58818239  0.83485861  0.00612898     0.94190
N685        N  0.56053074  0.97208750  0.85826093    -0.07950
N686        N  0.52612272  0.95632206  0.81611844    -0.60460
N687        N  0.59690014  0.70115992  0.98401801    -0.06070
N688        N  0.58045629  0.71741620  0.02509233    -0.61710
N689        N  0.61213344  0.73000913  0.93987304    -0.07980
N690        N  0.60617144  0.76623578  0.95034210    -0.60730
N691        N  0.54845964  0.94302337  0.90207542    -0.05710
N692        N  0.50469201  0.90718810  0.89077790    -0.61800
Mn693      Mn  0.59843099  0.96708443  0.98232926     1.18440
C694        C  0.49149477  0.91524860  0.83552222     0.96500
C695        C  0.58800179  0.75925237  0.00523789     0.97160
N696        N  0.39405800  0.94304587  0.89816485    -0.08000
N697        N  0.40201489  0.90801741  0.88853399    -0.64310
N698        N  0.45652304  0.72896114  0.93195700    -0.06800
N699        N  0.50069719  0.76430267  0.94157340    -0.64980
N700        N  0.44498539  0.70078988  0.97687297    -0.07500
N701        N  0.48038805  0.71572963  0.01738432    -0.64570
N702        N  0.40594173  0.97000057  0.85202449    -0.06400
N703        N  0.42096024  0.95331022  0.80988223    -0.65260
Mn704      Mn  0.37673949  0.96920443  0.97990120     1.10660
C705        C  0.41753088  0.91385948  0.83207826     0.97720
C706        C  0.51478484  0.75601763  0.99609436     0.97800
N707        N  0.36464608  0.77057279  0.85258608    -0.07510
N708        N  0.37150866  0.81266730  0.84013839    -0.62880
N709        N  0.34832951  0.66914821  0.78203101    -0.06830
N710        N  0.33818843  0.62691310  0.76117410    -0.59610
N711        N  0.64265762  0.67053063  0.78302196    -0.08140
N712        N  0.60650948  0.62944770  0.76196495    -0.62450
N713        N  0.40373669  0.77006309  0.84851388    -0.07130
N714        N  0.43761459  0.81169152  0.83231685    -0.59640
Mn715      Mn  0.62925744  0.70481456  0.85735343     1.20190
Mn716      Mn  0.40513922  0.70355645  0.85201293     1.10090
Cl717      Cl  0.66919511  0.66966465  0.91804932    -0.87610
C718        C  0.41723402  0.83822245  0.82754253     0.94730
C719        C  0.62456475  0.93539083  0.75095978     0.94520
N720        N  0.60775228  0.73055884  0.39450894    -0.07760
N721        N  0.60121569  0.76604784  0.38304685    -0.59880
N722        N  0.55118050  0.94959150  0.43951252    -0.07440
N723        N  0.50945200  0.91442854  0.45143127    -0.62010
N724        N  0.56781665  0.98294944  0.48241813    -0.07040
N725        N  0.53782611  0.97065151  0.52475485    -0.59860
N726        N  0.58718436  0.69720761  0.35121261    -0.06720
N727        N  0.56648799  0.70988210  0.30939725    -0.62360
C728        C  0.57631032  0.75364936  0.32886978     0.94410
C729        C  0.50171509  0.92720497  0.50595110     0.94190
N730        N  0.63044445  0.89860571  0.36281677    -0.07950
N731        N  0.62299310  0.85621303  0.34878368    -0.60460
N732        N  0.62671152  0.97753655  0.28080422    -0.06070
N733        N  0.62473220  0.67633181  0.25024251    -0.61710
N734        N  0.33601877  0.98393666  0.28218240    -0.07980
N735        N  0.36361692  0.68888544  0.25396127    -0.60730
N736        N  0.59034093  0.89769448  0.35915924    -0.05710
N737        N  0.55582099  0.85539882  0.33904256    -0.61800
Mn738      Mn  0.58766104  0.96228202  0.35734390     1.18440
C739        C  0.57659400  0.82957422  0.33319177     0.96500
C740        C  0.33505399  0.70443917  0.23567322     0.97160
N741        N  0.66148800  0.69463055  0.55474962    -0.08000
N742        N  0.62842382  0.65920853  0.58247428    -0.64310
N743        N  0.41093651  0.78198160  0.47970774    -0.06800
N744        N  0.44663425  0.82493871  0.49553552    -0.64980
N745        N  0.37137436  0.78210196  0.47799970    -0.07500
N746        N  0.37964915  0.82497653  0.49231958    -0.64570
N747        N  0.36574215  0.69064011  0.55358286    -0.06400
N748        N  0.35719636  0.65144961  0.57933143    -0.65260
Mn749      Mn  0.63622405  0.71630233  0.47797758     1.10660
C750        C  0.64607842  0.96514588  0.59544942     0.97720
C751        C  0.42692729  0.85192792  0.50190387     0.97800
N752        N  0.43488358  0.69841728  0.35016505    -0.07510
N753        N  0.46557599  0.71070083  0.30802499    -0.62880
N754        N  0.41482647  0.98245281  0.48241102    -0.06830
N755        N  0.43605443  0.97050278  0.52394374    -0.59610
N756        N  0.39629903  0.95017811  0.43804939    -0.08140
N757        N  0.40482996  0.91581172  0.44848913    -0.62450
N758        N  0.45176386  0.73087328  0.39464890    -0.07130
N759        N  0.49416170  0.76560320  0.38325966    -0.59640
Mn760      Mn  0.36571188  0.96447398  0.35705896     1.20190
Mn761      Mn  0.41247228  0.71526527  0.47889715     1.10090
Cl762      Cl  0.66754342  0.67332660  0.41745829    -0.87470
C763        C  0.50245435  0.75378906  0.32801389     0.94730
C764        C  0.42892971  0.92818508  0.50332007     0.94520
C765        C  0.57156974  0.90147803  0.63368462    -0.10800
C766        C  0.61765747  0.91731469  0.61717621     0.05400
C767        C  0.30624237  0.56055548  0.64186755    -0.04570
C768        C  0.29235479  0.54007048  0.69709211    -0.09020
C769        C  0.59679591  0.88551674  0.72608123     0.04510
C770        C  0.55903086  0.87854529  0.68781456    -0.04040
Br771      Br  0.49929176  0.82284586  0.69297978    -0.03740
H772        H  0.54741476  0.90764891  0.60705594     0.08420
H773        H  0.31276146  0.52804403  0.72182427     0.06440
Br774      Br  0.35385905  0.55785758  0.60442776    -0.04160
C775        C  0.39932135  0.78179615  0.21449314    -0.10800
C776        C  0.35064889  0.75056228  0.21425745     0.05400
C777        C  0.65416231  0.09012357  0.17254487    -0.04570
C778        C  0.67655185  0.11798172  0.12371979    -0.09020
C779        C  0.38386481  0.78461005  0.11105278     0.04510
C780        C  0.41599398  0.80406740  0.16156344    -0.04040
Br781      Br  0.46036747  0.87097133  0.16961261    -0.03740
H782        H  0.42304393  0.78689101  0.25267658     0.08420
H783        H  0.65510341  0.11720169  0.08581431     0.06440
Br784      Br  0.58694615  0.04514279  0.16235300    -0.04160
C785        C  0.46712718  0.93519237  0.70739827    -0.10800
C786        C  0.44189645  0.89068597  0.73382338     0.05400
C787        C  0.41928811  0.85110652  0.69108600    -0.04570
C788        C  0.42726410  0.85655864  0.62939122    -0.09020
C789        C  0.45303595  0.90099056  0.60265305     0.04510
C790        C  0.47319942  0.94094987  0.64500684    -0.04040
Br791      Br  0.50946260  0.00627783  0.62570586    -0.03740
H792        H  0.48241458  0.96726882  0.73567273     0.08420
H793        H  0.40977323  0.82402578  0.60204944     0.06440
Br794      Br  0.37208948  0.78719818  0.70669765    -0.04160
C795        C  0.60231817  0.81278974  0.13963186    -0.10800
C796        C  0.56193898  0.78886897  0.10002152     0.05400
C797        C  0.52101729  0.77865917  0.12814910    -0.04570
C798        C  0.51693848  0.77309084  0.19141145    -0.09020
C799        C  0.55654252  0.78602779  0.23175327     0.04510
C800        C  0.60061303  0.81088441  0.20344479    -0.04040
Br801      Br  0.66182981  0.84310524  0.24513990    -0.03740
H802        H  0.63585224  0.83374601  0.12088226     0.08420
H803        H  0.48381842  0.76376416  0.20928203     0.06440
Br804      Br  0.48742003  0.80318669  0.08777287    -0.04160
C805        C  0.89707356  0.11844542  0.02850404    -0.04130
C806        C  0.88572347  0.11324462  0.30301173    -0.04130
C807        C  0.77463816  0.22196157  0.80559351    -0.04130
C808        C  0.78641531  0.23608077  0.53074836    -0.04130
N809        N  0.69492686  0.33761199  0.05254010    -0.07760
N810        N  0.72664771  0.04798124  0.07414512    -0.59880
N811        N  0.93477545  0.23570898  0.98433625    -0.07440
N812        N  0.90052688  0.19371641  0.99811790    -0.62010
N813        N  0.97476436  0.23649698  0.98502281    -0.07040
N814        N  0.96811866  0.19477848  0.99885886    -0.59860
N815        N  0.98569771  0.33095999  0.05478348    -0.06720
N816        N  0.98867594  0.03547332  0.07850004    -0.62360
C817        C  0.70113950  0.06749317  0.08911826     0.94410
C818        C  0.92151507  0.16819212  0.00613152     0.94190
N819        N  0.89386573  0.30542061  0.85826323    -0.07950
N820        N  0.85945758  0.28965471  0.81612072    -0.60460
N821        N  0.93023048  0.03449229  0.98401839    -0.06070
N822        N  0.91378776  0.05074916  0.02509382    -0.61710
N823        N  0.94546442  0.06334216  0.93987420    -0.07980
N824        N  0.93950352  0.09956936  0.95034437    -0.60730
N825        N  0.88179434  0.27635754  0.90207896    -0.05710
N826        N  0.83802635  0.24052265  0.89078225    -0.61800
Mn827      Mn  0.93176659  0.30041908  0.98233263     1.18440
C828        C  0.82482913  0.24858210  0.83552582     0.96500
C829        C  0.92133431  0.09258585  0.00524074     0.97160
N830        N  0.72739236  0.27637956  0.89816906    -0.08000
N831        N  0.73534933  0.24135118  0.88853840    -0.64310
N832        N  0.78985488  0.06229470  0.93195699    -0.06800
N833        N  0.83402899  0.09763641  0.94157422    -0.64980
N834        N  0.77831684  0.03412323  0.97687272    -0.07500
N835        N  0.81371921  0.04906291  0.01738458    -0.64570
N836        N  0.73927613  0.30333424  0.85202865    -0.06400
N837        N  0.75429462  0.28664389  0.80988653    -0.65260
Mn838      Mn  0.71007449  0.30253808  0.97990541     1.10660
C839        C  0.75086534  0.24719334  0.83208273     0.97720
C840        C  0.84811636  0.08935112  0.99609534     0.97800
N841        N  0.69797792  0.10390642  0.85258769    -0.07510
N842        N  0.70484144  0.14600143  0.84014091    -0.62880
N843        N  0.68165954  0.00248103  0.78203254    -0.06830
N844        N  0.67151675  0.96024462  0.76117896    -0.59610
N845        N  0.97598837  0.00386497  0.78302227    -0.08140
N846        N  0.93983936  0.96278207  0.76196657    -0.62450
N847        N  0.73706830  0.10339620  0.84851585    -0.07130
N848        N  0.77094703  0.14502477  0.83232057    -0.59640
Mn849      Mn  0.96258870  0.03814854  0.85735412     1.20190
Mn850      Mn  0.73847059  0.03688971  0.85201303     1.10090
Cl851      Cl  0.00252612  0.00299766  0.91804868    -0.87610
C852        C  0.75056721  0.17155631  0.82754654     0.94730
C853        C  0.95790262  0.26872501  0.75095821     0.94520
N854        N  0.94108552  0.06389240  0.39450883    -0.07760
N855        N  0.93454859  0.09938122  0.38304753    -0.59880
N856        N  0.88451410  0.28292449  0.43951712    -0.07440
N857        N  0.84278572  0.24776158  0.45143637    -0.62010
N858        N  0.90115014  0.31628281  0.48242222    -0.07040
N859        N  0.87115961  0.30398524  0.52475905    -0.59860
N860        N  0.92051772  0.03054144  0.35121215    -0.06720
N861        N  0.89982108  0.04321596  0.30939731    -0.62360
C862        C  0.90964321  0.08698295  0.32887058     0.94410
C863        C  0.83504867  0.26053837  0.50595595     0.94190
N864        N  0.96377794  0.23193845  0.36282061    -0.07950
N865        N  0.95632644  0.18954595  0.34878603    -0.60460
N866        N  0.96004440  0.31086916  0.28080741    -0.06070
N867        N  0.95806633  0.00966627  0.25024236    -0.61710
N868        N  0.66935151  0.31726896  0.28218471    -0.07980
N869        N  0.69695142  0.02222063  0.25396292    -0.60730
N870        N  0.92367450  0.23102740  0.35916368    -0.05710
N871        N  0.88915452  0.18873217  0.33904593    -0.61800
Mn872      Mn  0.92099437  0.29561469  0.35734781     1.18440
C873        C  0.90992740  0.16290762  0.33319366     0.96500
C874        C  0.66838848  0.03777417  0.23567524     0.97160
N875        N  0.99482059  0.02796467  0.55474945    -0.08000
N876        N  0.96175702  0.99254351  0.58247592    -0.64310
N877        N  0.74426960  0.11531551  0.47970898    -0.06800
N878        N  0.77996724  0.15827231  0.49553843    -0.64980
N879        N  0.70470744  0.11543590  0.47800072    -0.07500
N880        N  0.71298220  0.15831024  0.49232216    -0.64570
N881        N  0.69907517  0.02397499  0.55358364    -0.06400
N882        N  0.69053052  0.98478609  0.57933525    -0.65260
Mn883      Mn  0.96955698  0.04963589  0.47797719     1.10660
C884        C  0.97941105  0.29847696  0.59544836     0.97720
C885        C  0.76026030  0.18526145  0.50190763     0.97800
N886        N  0.76821655  0.03175169  0.35016569    -0.07510
N887        N  0.79890902  0.04403529  0.30802580    -0.62880
N888        N  0.74816026  0.31578616  0.48241325    -0.06830
N889        N  0.76938815  0.30383643  0.52394634    -0.59610
N890        N  0.72963279  0.28351122  0.43805193    -0.08140
N891        N  0.73816386  0.24914502  0.44849199    -0.62450
N892        N  0.78509695  0.06420726  0.39465002    -0.07130
N893        N  0.82749508  0.09893689  0.38326143    -0.59640
Mn894      Mn  0.69904523  0.29780648  0.35706154     1.20190
Mn895      Mn  0.74580513  0.04859908  0.47889779     1.10090
Cl896      Cl  0.00087650  0.00666054  0.41745786    -0.87470
C897        C  0.83578761  0.08712300  0.32801547     0.94730
C898        C  0.76226378  0.26151892  0.50332278     0.94520
C899        C  0.90490318  0.23481021  0.63368562    -0.10800
C900        C  0.95098912  0.25064485  0.61717172     0.05400
C901        C  0.63957745  0.89389350  0.64187986    -0.04570
C902        C  0.62568336  0.87340300  0.69710023    -0.09020
C903        C  0.93013455  0.21885095  0.72608000     0.04510
C904        C  0.89236753  0.21187882  0.68781667    -0.04040
Br905      Br  0.83262777  0.15618170  0.69298879    -0.03740
H906        H  0.88074715  0.24098143  0.60705992     0.08420
H907        H  0.64609169  0.86138047  0.72183680     0.06440
Br908      Br  0.68721847  0.89122337  0.60446930    -0.04160
C909        C  0.73265530  0.11513165  0.21449080    -0.10800
C910        C  0.68398412  0.08389713  0.21426207     0.05400
C911        C  0.98749637  0.42345723  0.17254261    -0.04570
C912        C  0.00988085  0.45131506  0.12370664    -0.09020
C913        C  0.71719347  0.11794125  0.11105338     0.04510
C914        C  0.74932620  0.13740133  0.16156052    -0.04040
Br915      Br  0.79368876  0.20430818  0.16959477    -0.03740
H916        H  0.75638772  0.12023017  0.25268478     0.08420
H917        H  0.98847805  0.45053650  0.08587139     0.06440
Br918      Br  0.92028069  0.37847702  0.16235317    -0.04160
C919        C  0.80045881  0.26852606  0.70740225    -0.10800
C920        C  0.77522932  0.22401955  0.73382742     0.05400
C921        C  0.75262123  0.18444005  0.69108997    -0.04570
C922        C  0.76059618  0.18989252  0.62939506    -0.09020
C923        C  0.78636717  0.23432443  0.60265695     0.04510
C924        C  0.80652992  0.27428366  0.64501063    -0.04040
Br925      Br  0.84279377  0.33961155  0.62570967    -0.03740
H926        H  0.81574698  0.30060243  0.73567703     0.08420
H927        H  0.74310612  0.15735970  0.60205317     0.06440
Br928      Br  0.70542627  0.12053026  0.70670166    -0.04160
C929        C  0.93564974  0.14612308  0.13963336    -0.10800
C930        C  0.89527064  0.12220179  0.10002323     0.05400
C931        C  0.85434872  0.11199066  0.12815118    -0.04570
C932        C  0.85027048  0.10642273  0.19141348    -0.09020
C933        C  0.88987495  0.11936104  0.23175493     0.04510
C934        C  0.93394519  0.14421788  0.20344609    -0.04040
Br935      Br  0.99516209  0.17643879  0.24514075    -0.03740
H936        H  0.96918466  0.16708056  0.12088239     0.08420
H937        H  0.81715010  0.09709535  0.20928436     0.06440
Br938      Br  0.82075122  0.13651813  0.08777654    -0.04160
C939        C  0.89707527  0.45177949  0.02850508    -0.04130
C940        C  0.88572354  0.44657721  0.30301288    -0.04130
C941        C  0.77463860  0.55529452  0.80559167    -0.04130
C942        C  0.78641545  0.56941405  0.53074643    -0.04130
N943        N  0.69492757  0.67094538  0.05253773    -0.07760
N944        N  0.72665100  0.38131472  0.07415102    -0.59880
N945        N  0.93477632  0.56904224  0.98433458    -0.07440
N946        N  0.90052807  0.52704993  0.99811747    -0.62010
N947        N  0.97476530  0.56983040  0.98502122    -0.07040
N948        N  0.96812000  0.52811230  0.99885860    -0.59860
N949        N  0.98569840  0.66429331  0.05478104    -0.06720
N950        N  0.98867956  0.36880822  0.07850186    -0.62360
C951        C  0.70114282  0.40082782  0.08912124     0.94410
C952        C  0.92151653  0.50152599  0.00613195     0.94190
N953        N  0.89386624  0.63875350  0.85826089    -0.07950
N954        N  0.85945800  0.62298765  0.81611851    -0.60460
N955        N  0.93023317  0.36782694  0.98402054    -0.06070
N956        N  0.91378951  0.38408332  0.02509504    -0.61710
N957        N  0.94546652  0.39667620  0.93987562    -0.07980
N958        N  0.93950470  0.43290294  0.95034484    -0.60730
N959        N  0.88179492  0.60969053  0.90207672    -0.05710
N960        N  0.83802687  0.57385575  0.89078024    -0.61800
Mn961      Mn  0.93176720  0.63375221  0.98233035     1.18440
C962        C  0.82482956  0.58191517  0.83552386     0.96500
C963        C  0.92133515  0.42591955  0.00524075     0.97160
N964        N  0.72739267  0.60971269  0.89816669    -0.08000
N965        N  0.73534976  0.57468435  0.88853633    -0.64310
N966        N  0.78985619  0.39562818  0.93195986    -0.06800
N967        N  0.83403031  0.43096987  0.94157629    -0.64980
N968        N  0.77831857  0.36745685  0.97687577    -0.07500
N969        N  0.81372131  0.38239674  0.01738707    -0.64570
N970        N  0.73927628  0.63666717  0.85202607    -0.06400
N971        N  0.75429475  0.61997667  0.80988411    -0.65260
Mn972      Mn  0.71007503  0.63587138  0.97990302     1.10660
C973        C  0.75086568  0.58052628  0.83208066     0.97720
C974        C  0.84811809  0.42268487  0.99609717     0.97800
N975        N  0.69797939  0.43723977  0.85258837    -0.07510
N976        N  0.70484233  0.47933430  0.84013999    -0.62880
N977        N  0.68166245  0.33581497  0.78203406    -0.06830
N978        N  0.67152119  0.29357967  0.76117774    -0.59610
N979        N  0.97599062  0.33719755  0.78302471    -0.08140
N980        N  0.93984240  0.29611455  0.76196802    -0.62450
N981        N  0.73707000  0.43672990  0.84851711    -0.07130
N982        N  0.77094830  0.47835825  0.83232052    -0.59640
Mn983      Mn  0.96259049  0.37148164  0.85735589     1.20190
Mn984      Mn  0.73847231  0.37022336  0.85201587     1.10090
Cl985      Cl  0.00252804  0.33633156  0.91805187    -0.87610
C986        C  0.75056796  0.50488929  0.82754514     0.94730
C987        C  0.95790320  0.60205839  0.75095449     0.94520
N988        N  0.94108541  0.39722514  0.39451133    -0.07760
N989        N  0.93454872  0.43271405  0.38304928    -0.59880
N990        N  0.88451401  0.61625796  0.43951477    -0.07440
N991        N  0.84278575  0.58109494  0.45143424    -0.62010
N992        N  0.90115008  0.64961629  0.48241985    -0.07040
N993        N  0.87115968  0.63731864  0.52475687    -0.59860
N994        N  0.92051744  0.36387389  0.35121505    -0.06720
N995        N  0.89982094  0.37654826  0.30939975    -0.62360
C996        C  0.90964328  0.42031550  0.32887229     0.94410
C997        C  0.83504880  0.59387168  0.50595393     0.94190
N998        N  0.96377785  0.56527166  0.36281950    -0.07950
N999        N  0.95632626  0.52287882  0.34878688    -0.60460
N1000       N  0.96004448  0.64420245  0.28080518    -0.06070
N1001       N  0.95806541  0.34299857  0.25024496    -0.61710
N1002       N  0.66935154  0.65060212  0.28218250    -0.07980
N1003       N  0.69695023  0.35555242  0.25396378    -0.60730
N1004       N  0.92367441  0.56436061  0.35916199    -0.05710
N1005       N  0.88915436  0.52206498  0.33904554    -0.61800
Mn1006     Mn  0.92099438  0.62894809  0.35734552     1.18440
C1007       C  0.90992718  0.49624022  0.33319487     0.96500
C1008       C  0.66838722  0.37110609  0.23567594     0.97160
N1009       N  0.99482138  0.36129759  0.55475215    -0.08000
N1010       N  0.96175732  0.32587584  0.58247730    -0.64310
N1011       N  0.74426982  0.44864836  0.47970998    -0.06800
N1012       N  0.77996756  0.49160549  0.49553775    -0.64980
N1013       N  0.70470766  0.44876868  0.47800184    -0.07500
N1014       N  0.71298244  0.49164326  0.49232159    -0.64570
N1015       N  0.69907554  0.35730719  0.55358547    -0.06400
N1016       N  0.69052991  0.31811697  0.57933464    -0.65260
Mn1017     Mn  0.96955734  0.38296896  0.47797991     1.10660
C1018       C  0.97941076  0.63180947  0.59544488     0.97720
C1019       C  0.76026058  0.51859469  0.50190599     0.97800
N1020       N  0.76821665  0.36508394  0.35016739    -0.07510
N1021       N  0.79890906  0.37736737  0.30802739    -0.62880
N1022       N  0.74816053  0.64911945  0.48241096    -0.06830
N1023       N  0.76938838  0.63716974  0.52394411    -0.59610
N1024       N  0.72963295  0.61684442  0.43804978    -0.08140
N1025       N  0.73816392  0.58247815  0.44848996    -0.62450
N1026       N  0.78509697  0.39753986  0.39465132    -0.07130
N1027       N  0.82749490  0.43226962  0.38326222    -0.59640
Mn1028     Mn  0.69904529  0.63113965  0.35705950     1.20190
Mn1029     Mn  0.74580549  0.38193201  0.47889953     1.10090
Cl1030     Cl  0.00087668  0.33999327  0.41746060    -0.87470
C1031       C  0.83578749  0.42045545  0.32801645     0.94730
C1032       C  0.76226393  0.59485216  0.50332070     0.94520
C1033       C  0.90490303  0.56814285  0.63368221    -0.10800
C1034       C  0.95098872  0.58397718  0.61716761     0.05400
C1035       C  0.63957604  0.22722311  0.64187185    -0.04570
C1036       C  0.62568768  0.20673729  0.69709582    -0.09020
C1037       C  0.93013516  0.55218430  0.72607650     0.04510
C1038       C  0.89236784  0.54521190  0.68781358    -0.04040
Br1039     Br  0.83262832  0.48951453  0.69298612    -0.03740
H1040       H  0.88074683  0.57431397  0.60705675     0.08420
H1041       H  0.64609442  0.19471106  0.72182829     0.06440
Br1042     Br  0.68719516  0.22452812  0.60443485    -0.04160
C1043       C  0.73265449  0.44846316  0.21449592    -0.10800
C1044       C  0.68398216  0.41722926  0.21426082     0.05400
C1045       C  0.98749663  0.75679041  0.17253928    -0.04570
C1046       C  0.00988037  0.78464822  0.12370198    -0.09020
C1047       C  0.71719759  0.45127652  0.11105578     0.04510
C1048       C  0.74932709  0.47073412  0.16156615    -0.04040
Br1049     Br  0.79369945  0.53763835  0.16961395    -0.03740
H1050       H  0.75637803  0.45355837  0.25268056     0.08420
H1051       H  0.98848290  0.78386979  0.08587514     0.06440
Br1052     Br  0.92028099  0.71181028  0.16235036    -0.04160
C1053       C  0.80045885  0.60185910  0.70740039    -0.10800
C1054       C  0.77522970  0.55735253  0.73382559     0.05400
C1055       C  0.75262174  0.51777306  0.69108819    -0.04570
C1056       C  0.76059636  0.52322566  0.62939322    -0.09020
C1057       C  0.78636711  0.56765763  0.60265505     0.04510
C1058       C  0.80652974  0.60761679  0.64500875    -0.04040
Br1059     Br  0.84279353  0.67294468  0.62570775    -0.03740
H1060       H  0.81574707  0.63393547  0.73567520     0.08420
H1061       H  0.74310645  0.49069281  0.60205144     0.06440
Br1062     Br  0.70542783  0.45386296  0.70670040    -0.04160
C1063       C  0.93565141  0.47945673  0.13963472    -0.10800
C1064       C  0.89527229  0.45553611  0.10002429     0.05400
C1065       C  0.85435053  0.44532612  0.12815185    -0.04570
C1066       C  0.85027165  0.43975751  0.19141414    -0.09020
C1067       C  0.88987567  0.45269436  0.23175598     0.04510
C1068       C  0.93394620  0.47755119  0.20344759    -0.04040
Br1069     Br  0.99516295  0.50977211  0.24514275    -0.03740
H1070       H  0.96918561  0.50041313  0.12088509     0.08420
H1071       H  0.81715152  0.43043067  0.20928472     0.06440
Br1072     Br  0.82075312  0.46985356  0.08777576    -0.04160
C1073       C  0.89707518  0.78511224  0.02850229    -0.04130
C1074       C  0.88572378  0.77991098  0.30301023    -0.04130
C1075       C  0.77463753  0.88862784  0.80558940    -0.04130
C1076       C  0.78641556  0.90274714  0.53074442    -0.04130
N1077       N  0.69492398  0.00427834  0.05253495    -0.07760
N1078       N  0.72665167  0.71464818  0.07414847    -0.59880
N1079       N  0.93477437  0.90237463  0.98433214    -0.07440
N1080       N  0.90052661  0.86038201  0.99811484    -0.62010
N1081       N  0.97476361  0.90316332  0.98501842    -0.07040
N1082       N  0.96811905  0.86144544  0.99885547    -0.59860
N1083       N  0.98569463  0.99762557  0.05478026    -0.06720
N1084       N  0.98868020  0.70214159  0.07849908    -0.62360
C1085       C  0.70114340  0.73416131  0.08911832     0.94410
C1086       C  0.92151572  0.83485861  0.00612898     0.94190
N1087       N  0.89386407  0.97208750  0.85826093    -0.07950
N1088       N  0.85945606  0.95632206  0.81611844    -0.60460
N1089       N  0.93023348  0.70115992  0.98401801    -0.06070
N1090       N  0.91378962  0.71741620  0.02509233    -0.61710
N1091       N  0.94546677  0.73000913  0.93987304    -0.07980
N1092       N  0.93950478  0.76623578  0.95034210    -0.60730
N1093       N  0.88179297  0.94302337  0.90207542    -0.05710
N1094       N  0.83802535  0.90718810  0.89077790    -0.61800
Mn1095     Mn  0.93176433  0.96708443  0.98232926     1.18440
C1096       C  0.82482810  0.91524860  0.83552222     0.96500
C1097       C  0.92133512  0.75925237  0.00523789     0.97160
N1098       N  0.72739133  0.94304587  0.89816485    -0.08000
N1099       N  0.73534822  0.90801741  0.88853398    -0.64310
N1100       N  0.78985638  0.72896114  0.93195700    -0.06800
N1101       N  0.83403053  0.76430267  0.94157340    -0.64980
N1102       N  0.77831872  0.70078988  0.97687297    -0.07500
N1103       N  0.81372138  0.71572963  0.01738432    -0.64570
N1104       N  0.73927506  0.97000057  0.85202449    -0.06400
N1105       N  0.75429357  0.95331022  0.80988223    -0.65260
Mn1106     Mn  0.71007282  0.96920443  0.97990120     1.10660
C1107       C  0.75086421  0.91385948  0.83207826     0.97720
C1108       C  0.84811817  0.75601763  0.99609436     0.97800
N1109       N  0.69797941  0.77057279  0.85258608    -0.07510
N1110       N  0.70484199  0.81266730  0.84013839    -0.62880
N1111       N  0.68166285  0.66914821  0.78203101    -0.06830
N1112       N  0.67152176  0.62691310  0.76117410    -0.59610
N1113       N  0.97599095  0.67053063  0.78302196    -0.08140
N1114       N  0.93984281  0.62944770  0.76196495    -0.62450
N1115       N  0.73707003  0.77006309  0.84851388    -0.07130
N1116       N  0.77094792  0.81169152  0.83231685    -0.59640
Mn1117     Mn  0.96259077  0.70481456  0.85735343     1.20190
Mn1118     Mn  0.73847255  0.70355645  0.85201293     1.10090
Cl1119     Cl  0.00252845  0.66966465  0.91804932    -0.87610
C1120       C  0.75056735  0.83822245  0.82754253     0.94730
C1121       C  0.95789808  0.93539083  0.75095978     0.94520
N1122       N  0.94108561  0.73055884  0.39450894    -0.07760
N1123       N  0.93454902  0.76604784  0.38304685    -0.59880
N1124       N  0.88451383  0.94959150  0.43951252    -0.07440
N1125       N  0.84278533  0.91442854  0.45143127    -0.62010
N1126       N  0.90114998  0.98294944  0.48241813    -0.07040
N1127       N  0.87115945  0.97065151  0.52475485    -0.59860
N1128       N  0.92051769  0.69720761  0.35121261    -0.06720
N1129       N  0.89982132  0.70988210  0.30939725    -0.62360
C1130       C  0.90964365  0.75364936  0.32886978     0.94410
C1131       C  0.83504842  0.92720497  0.50595110     0.94190
N1132       N  0.96377778  0.89860571  0.36281677    -0.07950
N1133       N  0.95632643  0.85621303  0.34878368    -0.60460
N1134       N  0.96004486  0.97753655  0.28080422    -0.06070
N1135       N  0.95806553  0.67633181  0.25024251    -0.61710
N1136       N  0.66935210  0.98393666  0.28218240    -0.07980
N1137       N  0.69695026  0.68888544  0.25396127    -0.60730
N1138       N  0.92367427  0.89769448  0.35915924    -0.05710
N1139       N  0.88915433  0.85539882  0.33904256    -0.61800
Mn1140     Mn  0.92099438  0.96228202  0.35734390     1.18440
C1141       C  0.90992734  0.82957422  0.33319177     0.96500
C1142       C  0.66838732  0.70443917  0.23567322     0.97160
N1143       N  0.99482133  0.69463055  0.55474962    -0.08000
N1144       N  0.96175715  0.65920853  0.58247428    -0.64310
N1145       N  0.74426984  0.78198160  0.47970774    -0.06800
N1146       N  0.77996758  0.82493871  0.49553552    -0.64980
N1147       N  0.70470769  0.78210196  0.47799970    -0.07500
N1148       N  0.71298248  0.82497653  0.49231958    -0.64570
N1149       N  0.69907549  0.69064011  0.55358286    -0.06400
N1150       N  0.69052970  0.65144961  0.57933143    -0.65260
Mn1151     Mn  0.96955739  0.71630233  0.47797758     1.10660
C1152       C  0.97941175  0.96514588  0.59544942     0.97720
C1153       C  0.76026063  0.85192792  0.50190387     0.97800
N1154       N  0.76821692  0.69841728  0.35016505    -0.07510
N1155       N  0.79890932  0.71070083  0.30802499    -0.62880
N1156       N  0.74815981  0.98245281  0.48241102    -0.06830
N1157       N  0.76938776  0.97050278  0.52394374    -0.59610
N1158       N  0.72963236  0.95017811  0.43804939    -0.08140
N1159       N  0.73816330  0.91581172  0.44848913    -0.62450
N1160       N  0.78509719  0.73087328  0.39464890    -0.07130
N1161       N  0.82749504  0.76560320  0.38325966    -0.59640
Mn1162     Mn  0.69904521  0.96447398  0.35705896     1.20190
Mn1163     Mn  0.74580562  0.71526527  0.47889715     1.10090
Cl1164     Cl  0.00087676  0.67332660  0.41745829    -0.87470
C1165       C  0.83578768  0.75378906  0.32801389     0.94730
C1166       C  0.76226305  0.92818508  0.50332007     0.94520
C1167       C  0.90490308  0.90147803  0.63368462    -0.10800
C1168       C  0.95099081  0.91731469  0.61717621     0.05400
C1169       C  0.63957571  0.56055548  0.64186755    -0.04570
C1170       C  0.62568812  0.54007048  0.69709210    -0.09020
C1171       C  0.93012924  0.88551674  0.72608123     0.04510
C1172       C  0.89236419  0.87854529  0.68781456    -0.04040
Br1173     Br  0.83262510  0.82284586  0.69297978    -0.03740
H1174       H  0.88074809  0.90764891  0.60705594     0.08420
H1175       H  0.64609479  0.52804403  0.72182427     0.06440
Br1176     Br  0.68719238  0.55785757  0.60442775    -0.04160
C1177       C  0.73265468  0.78179615  0.21449314    -0.10800
C1178       C  0.68398223  0.75056228  0.21425745     0.05400
C1179       C  0.98749565  0.09012357  0.17254487    -0.04570
C1180       C  0.00988518  0.11798172  0.12371979    -0.09020
C1181       C  0.71719814  0.78461005  0.11105278     0.04510
C1182       C  0.74932731  0.80406740  0.16156344    -0.04040
Br1183     Br  0.79370081  0.87097133  0.16961261    -0.03740
H1184       H  0.75637727  0.78689101  0.25267658     0.08420
H1185       H  0.98843675  0.11720169  0.08581431     0.06440
Br1186     Br  0.92027949  0.04514279  0.16235300    -0.04160
C1187       C  0.80046052  0.93519237  0.70739827    -0.10800
C1188       C  0.77522978  0.89068597  0.73382338     0.05400
C1189       C  0.75262144  0.85110652  0.69108600    -0.04570
C1190       C  0.76059743  0.85655864  0.62939122    -0.09020
C1191       C  0.78636929  0.90099056  0.60265305     0.04510
C1192       C  0.80653276  0.94094987  0.64500684    -0.04040
Br1193     Br  0.84279594  0.00627783  0.62570586    -0.03740
H1194       H  0.81574792  0.96726882  0.73567273     0.08420
H1195       H  0.74310657  0.82402578  0.60204944     0.06440
Br1196     Br  0.70542281  0.78719818  0.70669765    -0.04160
C1197       C  0.93565151  0.81278974  0.13963186    -0.10800
C1198       C  0.89527231  0.78886897  0.10002152     0.05400
C1199       C  0.85435062  0.77865917  0.12814910    -0.04570
C1200       C  0.85027181  0.77309084  0.19141145    -0.09020
C1201       C  0.88987585  0.78602779  0.23175327     0.04510
C1202       C  0.93394637  0.81088441  0.20344479    -0.04040
Br1203     Br  0.99516314  0.84310524  0.24513990    -0.03740
H1204       H  0.96918558  0.83374601  0.12088226     0.08420
H1205       H  0.81715176  0.76376416  0.20928203     0.06440
Br1206     Br  0.82075336  0.80318669  0.08777287    -0.04160
loop_ 
_geom_bond_atom_site_label_1 
_geom_bond_atom_site_label_2 
_geom_bond_distance 
_geom_bond_site_symmetry_2 
_ccdc_geom_bond_type 
C1           C36   1.533   1_554  S
C1          C126   1.608       .  S
C1           C14   1.517       .  S
C1           C25   1.542       .  S
C2           C93   1.567       .  S
C2          C129   1.614       .  S
C2           C58   1.549       .  S
C2           C69   1.526       .  S
C3           C48   1.531       .  S
C3          C116   1.608       .  S
C3           C24   1.539       .  S
C3           C35   1.539       .  S
C4           C81   1.542       .  S
C4          C119   1.610       .  S
C4           C59   1.530       .  S
C4           C94   1.546       .  S
N5          Mn34   2.198   1_554  S
N5          N140   1.334       .  A
N5          N815   1.321   1_455  A
N6          N273   1.334       .  A
N6           C13   1.351       .  A
N7          Mn23   2.186       .  S
N7            N9   1.317       .  A
N7            N8   1.318       .  A
N8           C14   1.351   1_556  A
N9         Mn436   2.211       .  S
N9           N10   1.321       .  A
N10          C14   1.354   1_556  A
N11         Mn23   2.157   1_554  S
N11         N407   1.321       .  A
N11         N146   1.299       .  A
N12         N279   1.299   1_545  A
N12         C415   1.339       .  A
C13         N816   1.339   1_455  A
C13         C109   1.522       .  S
N15        Mn179   2.204       .  S
N15          N21   1.311       .  A
N15          N16   1.316       .  A
N16          C24   1.348       .  A
N17        Mn291   2.247   1_545  S
N17          N18   1.327   1_556  A
N17          N19   1.314       .  A
N18          C25   1.356       .  A
N19         Mn45   2.224       .  S
N19          N20   1.325       .  A
N20          C25   1.366   1_556  A
N21         Mn23   2.216       .  S
N21          N22   1.328       .  A
N22          C24   1.368       .  A
Mn23        N151   2.247       .  S
Mn23       Cl181   2.558       .  S
N26         Mn34   2.228       .  S
N26          N27   1.326       .  A
N26          N32   1.314       .  A
N27          C35   1.367       .  A
N28         Mn46   2.234       .  S
N28          N30   1.314       .  A
N28          N29   1.327       .  A
N29          C36   1.367       .  A
N30        Mn302   2.182   1_545  S
N30          N31   1.316   1_556  A
N31          C36   1.347   1_554  A
N32        Mn180   2.218       .  S
N32          N33   1.322       .  A
N33          C35   1.352       .  A
Mn34        N813   2.211   1_455  S
Mn34        N164   2.182       .  S
Mn34       Cl985   2.538       .  S
N37        Mn849   2.208   1_455  S
N37          N38   1.323       .  A
N37          N43   1.317       .  A
N38          C48   1.356       .  A
N39         Mn46   2.178       .  S
N39          N40   1.320   1_545  A
N39         N845   1.323   1_455  A
N40        C1121   1.344   1_455  A
N41         Mn45   2.180       .  S
N41          N42   1.321   1_545  A
N41         N441   1.323       .  A
N42         C317   1.341       .  A
N43         Mn46   2.218       .  S
N43          N44   1.324       .  A
N44          C48   1.357       .  A
Mn45        N283   2.204   1_545  S
Mn45        N439   2.208       .  S
Mn45        Cl47   2.534       .  S
Mn46        N300   2.218   1_545  S
Mn46       Cl851   2.548       .  S
Cl47       Mn291   2.558   1_545  S
Cl47       Mn704   2.538   1_545  S
Cl47       Mn448   2.548       .  S
C49         N576   1.344       .  A
C49         N176   1.341       .  A
C49          C99   1.488       .  S
N50         Mn79   2.219       .  S
N50          N51   1.322       .  A
N50          N56   1.316       .  A
N51          C58   1.362       .  A
N52         Mn68   2.180       .  S
N52          N54   1.309       .  A
N52          N53   1.318       .  A
N53          C59   1.360       .  A
N54        Mn213   2.215       .  S
N54          N55   1.322       .  A
N55          C59   1.352       .  A
N56        Mn336   2.264   1_545  S
N56          N57   1.331       .  A
N57          C58   1.361       .  A
N60        Mn492   2.210       .  S
N60          N66   1.318       .  A
N60          N61   1.315       .  A
N61          C69   1.348       .  A
N62         Mn68   2.110       .  S
N62         N197   1.299       .  A
N62         N466   1.322       .  A
N63         N330   1.299   1_545  A
N63         C472   1.323       .  A
N64         Mn90   2.174       .  S
N64         N866   1.322   1_455  A
N64         N199   1.315       .  A
N65         N332   1.315   1_545  A
N65          C70   1.344       .  A
N66         Mn68   2.176       .  S
N66          N67   1.320       .  A
N67          C69   1.352       .  A
Mn68        N190   2.264       .  S
Mn68       Cl226   2.566       .  S
C70         N867   1.323   1_455  A
C70         C106   1.432       .  S
N71         Mn79   2.166       .  S
N71          N72   1.316   1_545  A
N71         N479   1.325       .  A
N72         C348   1.336       .  A
N73         Mn91   2.225       .  S
N73          N75   1.317       .  A
N73          N74   1.323       .  A
N74          C81   1.358       .  A
N75        Mn883   2.194   1_455  S
N75          N76   1.322       .  A
N76          C81   1.354       .  A
N77         Mn91   2.208       .  S
N77          N78   1.322   1_545  A
N77         N875   1.325   1_455  A
N78        C1152   1.347   1_455  A
Mn79        N322   2.215   1_545  S
Mn79        N477   2.194       .  S
Mn79        Cl92   2.549       .  S
C80         N206   1.336       .  A
C80         N614   1.347       .  A
C80          C96   1.469       .  S
N82        Mn358   2.244   1_545  S
N82          N83   1.334       .  A
N82          N88   1.316       .  A
N83          C93   1.360       .  A
N84        Mn225   2.223       .  S
N84          N85   1.324       .  A
N84          N86   1.311       .  A
N85          C94   1.355       .  A
N86         Mn90   2.210       .  S
N86          N87   1.324       .  A
N87          C94   1.364       .  A
N88         Mn91   2.261       .  S
N88          N89   1.324       .  A
N89          C93   1.370       .  A
Mn90        N864   2.210   1_455  S
Mn90        N216   2.244       .  S
Mn90      Cl1030   2.533       .  S
Mn91        N352   2.223   1_545  S
Mn91       Cl896   2.540       .  S
Cl92       Mn336   2.566   1_545  S
Cl92       Mn760   2.533   1_545  S
Cl92       Mn493   2.540       .  S
C95          C96   1.415       .  A
C95         C100   1.404       .  A
C95         H102   1.081       .  S
C96         C633   1.411       .  A
C97          C98   1.401       .  A
C97        C1168   1.411       .  A
C97        Br104   1.868   1_655  S
C98        C1171   1.396       .  A
C98         H103   1.083       .  S
C99         C100   1.398       .  A
C99         C634   1.396       .  A
C100       Br101   1.901       .  S
C105        C106   1.403       .  A
C105        C110   1.388       .  A
C105        H112   1.083       .  S
C106       C1179   1.423   1_455  A
C107        C108   1.417       .  A
C107        C642   1.423       .  A
C107       Br114   1.944       .  S
C108        C645   1.396       .  A
C108        H113   1.070       .  S
C109        C110   1.406       .  A
C109       C1180   1.396       .  A
C110       Br111   1.919       .  S
C115        C116   1.422       .  A
C115        C120   1.422       .  A
C115        H122   1.079       .  S
C116        C117   1.432       .  A
C117        C118   1.415       .  A
C117       Br124   1.925       .  S
C118        C119   1.425       .  A
C118        H123   1.076       .  S
C119        C120   1.435       .  A
C120       Br121   1.922       .  S
C125        C126   1.406       .  A
C125        C130   1.432       .  A
C125        H132   1.078       .  S
C126        C127   1.409       .  A
C127        C128   1.434       .  A
C127       Br134   1.892       .  S
C128        C129   1.422       .  A
C128        H133   1.081       .  S
C129        C130   1.449       .  A
C130       Br131   1.923       .  S
C135        C170   1.533   1_554  S
C135        C260   1.608       .  S
C135        C148   1.517       .  S
C135        C159   1.542       .  S
C136        C227   1.567       .  S
C136        C263   1.614       .  S
C136        C192   1.549       .  S
C136        C203   1.526       .  S
C137        C182   1.531       .  S
C137        C250   1.608       .  S
C137        C158   1.539       .  S
C137        C169   1.539       .  S
C138        C215   1.542       .  S
C138        C253   1.610       .  S
C138        C193   1.530       .  S
C138        C228   1.546       .  S
N139       Mn168   2.198   1_554  S
N139        N274   1.334       .  A
N139        N949   1.321   1_455  A
N140        C147   1.351       .  A
N141       Mn157   2.186       .  S
N141        N143   1.317       .  A
N141        N142   1.318       .  A
N142        C148   1.351   1_556  A
N143       Mn570   2.211       .  S
N143        N144   1.321       .  A
N144        C148   1.354   1_556  A
N145       Mn157   2.157   1_554  S
N145        N541   1.321       .  A
N145        N280   1.299       .  A
N146        C549   1.339       .  A
C147        N950   1.339   1_455  A
C147        C243   1.522       .  S
N149       Mn313   2.204       .  S
N149        N155   1.311       .  A
N149        N150   1.316       .  A
N150        C158   1.348       .  A
N151        N152   1.327   1_556  A
N151        N153   1.314       .  A
N152        C159   1.356       .  A
N153       Mn179   2.224       .  S
N153        N154   1.325       .  A
N154        C159   1.366   1_556  A
N155       Mn157   2.216       .  S
N155        N156   1.328       .  A
N156        C158   1.368       .  A
Mn157       N285   2.247       .  S
Mn157      Cl315   2.558       .  S
N160       Mn168   2.228       .  S
N160        N161   1.326       .  A
N160        N166   1.314       .  A
N161        C169   1.367       .  A
N162       Mn180   2.234       .  S
N162        N164   1.314       .  A
N162        N163   1.327       .  A
N163        C170   1.367       .  A
N164        N165   1.316   1_556  A
N165        C170   1.347   1_554  A
N166       Mn314   2.218       .  S
N166        N167   1.322       .  A
N167        C169   1.352       .  A
Mn168       N947   2.211   1_455  S
Mn168       N298   2.182       .  S
Mn168     Cl1119   2.538       .  S
N171       Mn983   2.208   1_455  S
N171        N172   1.323       .  A
N171        N177   1.317       .  A
N172        C182   1.356       .  A
N173       Mn180   2.178       .  S
N173        N174   1.320       .  A
N173        N979   1.323   1_455  A
N174        C853   1.344   1_455  A
N175       Mn179   2.180       .  S
N175        N575   1.323       .  A
N175        N176   1.321       .  A
N177       Mn180   2.218       .  S
N177        N178   1.324       .  A
N178        C182   1.357       .  A
Mn179       N573   2.208       .  S
Mn179      Cl181   2.534       .  S
Mn180      Cl985   2.548       .  S
Cl181      Mn436   2.538       .  S
Cl181      Mn582   2.548       .  S
C183        N710   1.344       .  A
C183        N310   1.341       .  A
C183        C233   1.488       .  S
N184       Mn213   2.219       .  S
N184        N185   1.322       .  A
N184        N190   1.316       .  A
N185        C192   1.362       .  A
N186       Mn202   2.180       .  S
N186        N188   1.309       .  A
N186        N187   1.318       .  A
N187        C193   1.360       .  A
N188       Mn347   2.215       .  S
N188        N189   1.322       .  A
N189        C193   1.352       .  A
N190        N191   1.331       .  A
N191        C192   1.361       .  A
N194       Mn626   2.210       .  S
N194        N200   1.318       .  A
N194        N195   1.315       .  A
N195        C203   1.348       .  A
N196       Mn202   2.110       .  S
N196        N331   1.299       .  A
N196        N600   1.322       .  A
N197        C606   1.323       .  A
N198       Mn224   2.174       .  S
N198       N1000   1.322   1_455  A
N198        N333   1.315       .  A
N199        C204   1.344       .  A
N200       Mn202   2.176       .  S
N200        N201   1.320       .  A
N201        C203   1.352       .  A
Mn202       N324   2.264       .  S
Mn202      Cl360   2.566       .  S
C204       N1001   1.323   1_455  A
C204        C240   1.432       .  S
N205       Mn213   2.166       .  S
N205        N206   1.316       .  A
N205        N613   1.325       .  A
N207       Mn225   2.225       .  S
N207        N209   1.317       .  A
N207        N208   1.323       .  A
N208        C215   1.358       .  A
N209      Mn1017   2.194   1_455  S
N209        N210   1.322       .  A
N210        C215   1.354       .  A
N211       Mn225   2.208       .  S
N211       N1009   1.325   1_455  A
N211        N212   1.322       .  A
N212        C884   1.347   1_455  A
Mn213       N611   2.194       .  S
Mn213      Cl226   2.549       .  S
C214        N340   1.336       .  A
C214        N748   1.347       .  A
C214        C230   1.469       .  S
N216        N217   1.334       .  A
N216        N222   1.316       .  A
N217        C227   1.360       .  A
N218       Mn359   2.223       .  S
N218        N219   1.324       .  A
N218        N220   1.311       .  A
N219        C228   1.355       .  A
N220       Mn224   2.210       .  S
N220        N221   1.324       .  A
N221        C228   1.364       .  A
N222       Mn225   2.261       .  S
N222        N223   1.324       .  A
N223        C227   1.370       .  A
Mn224       N998   2.210   1_455  S
Mn224       N350   2.244       .  S
Mn224     Cl1164   2.533       .  S
Mn225     Cl1030   2.540       .  S
Cl226      Mn492   2.533       .  S
Cl226      Mn627   2.540       .  S
C229        C230   1.415       .  A
C229        C234   1.404       .  A
C229        H236   1.081       .  S
C230        C767   1.411       .  A
C231        C900   1.411       .  A
C231        C232   1.401       .  A
C231       Br238   1.869   1_655  S
C232        C903   1.396       .  A
C232        H237   1.083       .  S
C233        C768   1.396       .  A
C233        C234   1.398       .  A
C234       Br235   1.901       .  S
C239        C240   1.403       .  A
C239        C244   1.388       .  A
C239        H246   1.083       .  S
C240        C911   1.423   1_455  A
C241        C776   1.423       .  A
C241        C242   1.417       .  A
C241       Br248   1.944       .  S
C242        C779   1.396       .  A
C242        H247   1.070       .  S
C243        C912   1.396       .  A
C243        C244   1.406       .  A
C244       Br245   1.919       .  S
C249        C250   1.422       .  A
C249        C254   1.422       .  A
C249        H256   1.079       .  S
C250        C251   1.432       .  A
C251        C252   1.415       .  A
C251       Br258   1.925       .  S
C252        C253   1.425       .  A
C252        H257   1.076       .  S
C253        C254   1.435       .  A
C254       Br255   1.922       .  S
C259        C260   1.406       .  A
C259        C264   1.432       .  A
C259        H266   1.078       .  S
C260        C261   1.409       .  A
C261        C262   1.434       .  A
C261       Br268   1.892       .  S
C262        C263   1.422       .  A
C262        H267   1.081       .  S
C263        C264   1.449       .  A
C264       Br265   1.923       .  S
C269        C304   1.533   1_554  S
C269        C394   1.608       .  S
C269        C282   1.517       .  S
C269        C293   1.542       .  S
C270        C361   1.567       .  S
C270        C397   1.614       .  S
C270        C326   1.549       .  S
C270        C337   1.526       .  S
C271        C316   1.531       .  S
C271        C384   1.608       .  S
C271        C292   1.539       .  S
C271        C303   1.539       .  S
C272        C349   1.542       .  S
C272        C387   1.610       .  S
C272        C327   1.530       .  S
C272        C362   1.546       .  S
N273       Mn302   2.198   1_544  S
N273       N1083   1.321   1_445  A
N274        C281   1.351       .  A
N275       Mn291   2.186       .  S
N275        N277   1.317       .  A
N275        N276   1.318       .  A
N276        C282   1.351   1_556  A
N277       Mn704   2.211       .  S
N277        N278   1.321       .  A
N278        C282   1.354   1_556  A
N279       Mn291   2.157   1_554  S
N279        N675   1.321   1_565  A
N280        C683   1.339       .  A
C281       N1084   1.339   1_455  A
C281        C377   1.522       .  S
N283        N289   1.311       .  A
N283        N284   1.316       .  A
N284        C292   1.348       .  A
N285        N286   1.327   1_556  A
N285        N287   1.314       .  A
N286        C293   1.356       .  A
N287       Mn313   2.224       .  S
N287        N288   1.325       .  A
N288        C293   1.366   1_556  A
N289       Mn291   2.216       .  S
N289        N290   1.328       .  A
N290        C292   1.368       .  A
N294       Mn302   2.228       .  S
N294        N295   1.326       .  A
N294        N300   1.314       .  A
N295        C303   1.367       .  A
N296       Mn314   2.234       .  S
N296        N298   1.314       .  A
N296        N297   1.327       .  A
N297        C304   1.367       .  A
N298        N299   1.316   1_556  A
N299        C304   1.347   1_554  A
N300        N301   1.322       .  A
N301        C303   1.352       .  A
Mn302      N1081   2.211   1_455  S
Mn302      Cl851   2.538   1_565  S
N305      Mn1117   2.208   1_455  S
N305        N306   1.323       .  A
N305        N311   1.317       .  A
N306        C316   1.356       .  A
N307       Mn314   2.178       .  S
N307        N308   1.320       .  A
N307       N1113   1.323   1_455  A
N308        C987   1.344   1_455  A
N309       Mn313   2.180       .  S
N309        N709   1.323       .  A
N309        N310   1.321       .  A
N311       Mn314   2.218       .  S
N311        N312   1.324       .  A
N312        C316   1.357       .  A
Mn313       N707   2.208       .  S
Mn313      Cl315   2.534       .  S
Mn314     Cl1119   2.548       .  S
Cl315      Mn570   2.538       .  S
Cl315      Mn716   2.548       .  S
C317        N442   1.344       .  A
C317        C367   1.488       .  S
N318       Mn347   2.219       .  S
N318        N319   1.322       .  A
N318        N324   1.316       .  A
N319        C326   1.362       .  A
N320       Mn336   2.180       .  S
N320        N322   1.309       .  A
N320        N321   1.318       .  A
N321        C327   1.360       .  A
N322        N323   1.322       .  A
N323        C327   1.352       .  A
N324        N325   1.331       .  A
N325        C326   1.361       .  A
N328       Mn760   2.210       .  S
N328        N334   1.318       .  A
N328        N329   1.315       .  A
N329        C337   1.348       .  A
N330       Mn336   2.110       .  S
N330        N734   1.322       .  A
N331        C740   1.323       .  A
N332       Mn358   2.174       .  S
N332       N1134   1.322   1_455  A
N333        C338   1.344       .  A
N334       Mn336   2.176       .  S
N334        N335   1.320       .  A
N335        C337   1.352       .  A
C338       N1135   1.323   1_455  A
C338        C374   1.432       .  S
N339       Mn347   2.166       .  S
N339        N340   1.316       .  A
N339        N747   1.325       .  A
N341       Mn359   2.225       .  S
N341        N343   1.317       .  A
N341        N342   1.323       .  A
N342        C349   1.358       .  A
N343      Mn1151   2.194   1_455  S
N343        N344   1.322       .  A
N344        C349   1.354       .  A
N345       Mn359   2.208       .  S
N345       N1143   1.325   1_455  A
N345        N346   1.322       .  A
N346       C1018   1.347   1_455  A
Mn347       N745   2.194       .  S
Mn347      Cl360   2.549       .  S
C348        N480   1.347       .  A
C348        C364   1.469       .  S
N350        N351   1.334       .  A
N350        N356   1.316       .  A
N351        C361   1.360       .  A
N352        N353   1.324       .  A
N352        N354   1.311       .  A
N353        C362   1.355       .  A
N354       Mn358   2.210       .  S
N354        N355   1.324       .  A
N355        C362   1.364       .  A
N356       Mn359   2.261       .  S
N356        N357   1.324       .  A
N357        C361   1.370       .  A
Mn358      N1132   2.210   1_455  S
Mn358      Cl896   2.533   1_565  S
Mn359     Cl1164   2.540       .  S
Cl360      Mn626   2.533       .  S
Cl360      Mn761   2.540       .  S
C363        C364   1.415       .  A
C363        C368   1.404       .  A
C363        H370   1.081       .  S
C364        C499   1.411       .  A
C365       C1034   1.411       .  A
C365        C366   1.401       .  A
C365       Br372   1.869   1_655  S
C366       C1037   1.396       .  A
C366        H371   1.083       .  S
C367        C500   1.396       .  A
C367        C368   1.398       .  A
C368       Br369   1.901       .  S
C373        C374   1.403       .  A
C373        C378   1.388       .  A
C373        H380   1.083       .  S
C374       C1045   1.423   1_455  A
C375        C508   1.423       .  A
C375        C376   1.416       .  A
C375       Br382   1.944       .  S
C376        C511   1.396       .  A
C376        H381   1.072       .  S
C377       C1046   1.396       .  A
C377        C378   1.406       .  A
C378       Br379   1.919       .  S
C383        C384   1.422       .  A
C383        C388   1.422       .  A
C383        H390   1.079       .  S
C384        C385   1.432       .  A
C385        C386   1.415       .  A
C385       Br392   1.925       .  S
C386        C387   1.425       .  A
C386        H391   1.076       .  S
C387        C388   1.435       .  A
C388       Br389   1.922   1_565  S
C393        C394   1.406       .  A
C393        C398   1.432       .  A
C393        H400   1.078       .  S
C394        C395   1.409       .  A
C395        C396   1.434       .  A
C395       Br402   1.892       .  S
C396        C397   1.422       .  A
C396        H401   1.081       .  S
C397        C398   1.449       .  A
C398       Br399   1.923       .  S
C403        C438   1.533   1_554  S
C403        C528   1.608       .  S
C403        C416   1.517       .  S
C403        C427   1.542       .  S
C404        C495   1.567       .  S
C404        C531   1.614       .  S
C404        C460   1.549       .  S
C404        C471   1.526       .  S
C405        C450   1.531       .  S
C405        C518   1.608       .  S
C405        C426   1.539       .  S
C405        C437   1.539       .  S
C406        C483   1.542       .  S
C406        C521   1.610       .  S
C406        C461   1.530       .  S
C406        C496   1.546       .  S
N407       Mn436   2.198   1_554  S
N407        N542   1.334       .  A
N408        N675   1.334       .  A
N408        C415   1.351       .  A
N409       Mn425   2.186       .  S
N409        N411   1.317       .  A
N409        N410   1.318       .  A
N410        C416   1.351   1_556  A
N411       Mn838   2.211       .  S
N411        N412   1.321       .  A
N412        C416   1.354   1_556  A
N413       Mn425   2.157   1_554  S
N413        N809   1.321       .  A
N413        N548   1.299       .  A
N414        N681   1.299   1_545  A
N414        C817   1.339       .  A
C415        C511   1.522       .  S
N417       Mn581   2.204       .  S
N417        N423   1.311       .  A
N417        N418   1.316       .  A
N418        C426   1.348       .  A
N419       Mn693   2.247   1_545  S
N419        N420   1.327   1_556  A
N419        N421   1.314       .  A
N420        C427   1.356       .  A
N421       Mn447   2.224       .  S
N421        N422   1.325       .  A
N422        C427   1.366   1_556  A
N423       Mn425   2.216       .  S
N423        N424   1.328       .  A
N424        C426   1.368       .  A
Mn425       N553   2.247       .  S
Mn425      Cl583   2.558       .  S
N428       Mn436   2.228       .  S
N428        N429   1.326       .  A
N428        N434   1.314       .  A
N429        C437   1.367       .  A
N430       Mn448   2.234       .  S
N430        N432   1.314       .  A
N430        N431   1.327       .  A
N431        C438   1.367       .  A
N432       Mn704   2.182   1_545  S
N432        N433   1.316   1_556  A
N433        C438   1.347   1_554  A
N434       Mn582   2.218       .  S
N434        N435   1.322       .  A
N435        C437   1.352       .  A
Mn436       N566   2.182       .  S
N439        N440   1.323       .  A
N439        N445   1.317       .  A
N440        C450   1.356       .  A
N441       Mn448   2.178       .  S
N441        N442   1.320   1_545  A
N443       Mn447   2.180       .  S
N443        N843   1.323       .  A
N443        N444   1.321   1_545  A
N444        C719   1.341       .  A
N445       Mn448   2.218       .  S
N445        N446   1.324       .  A
N446        C450   1.357       .  A
Mn447       N685   2.204   1_545  S
Mn447       N841   2.208       .  S
Mn447      Cl449   2.534       .  S
Mn448       N702   2.218   1_545  S
Cl449      Mn693   2.558   1_545  S
Cl449     Mn1106   2.538   1_545  S
Cl449      Mn850   2.548       .  S
C451        N978   1.344       .  A
C451        N578   1.341       .  A
C451        C501   1.488       .  S
N452       Mn481   2.219       .  S
N452        N453   1.322       .  A
N452        N458   1.316       .  A
N453        C460   1.362       .  A
N454       Mn470   2.180       .  S
N454        N456   1.309       .  A
N454        N455   1.318       .  A
N455        C461   1.360       .  A
N456       Mn615   2.215       .  S
N456        N457   1.322       .  A
N457        C461   1.352       .  A
N458       Mn738   2.264   1_545  S
N458        N459   1.331       .  A
N459        C460   1.361       .  A
N462       Mn894   2.210       .  S
N462        N468   1.318       .  A
N462        N463   1.315       .  A
N463        C471   1.348       .  A
N464       Mn470   2.110       .  S
N464        N599   1.299       .  A
N464        N868   1.322       .  A
N465        N732   1.299   1_545  A
N465        C874   1.323       .  A
N466       Mn492   2.174       .  S
N466        N601   1.315       .  A
N467        N734   1.315   1_545  A
N467        C472   1.344       .  A
N468       Mn470   2.176       .  S
N468        N469   1.320       .  A
N469        C471   1.352       .  A
Mn470       N592   2.264       .  S
Mn470      Cl628   2.566       .  S
C472        C508   1.432       .  S
N473       Mn481   2.166       .  S
N473        N474   1.316   1_545  A
N473        N881   1.325       .  A
N474        C750   1.336       .  A
N475       Mn493   2.225       .  S
N475        N477   1.317       .  A
N475        N476   1.323       .  A
N476        C483   1.358       .  A
N477        N478   1.322       .  A
N478        C483   1.354       .  A
N479       Mn493   2.208       .  S
N479        N480   1.322   1_545  A
Mn481       N724   2.215   1_545  S
Mn481       N879   2.194       .  S
Mn481      Cl494   2.549       .  S
C482        N608   1.336       .  A
C482       N1016   1.347       .  A
C482        C498   1.469       .  S
N484       Mn760   2.244   1_545  S
N484        N485   1.334       .  A
N484        N490   1.316       .  A
N485        C495   1.360       .  A
N486       Mn627   2.223       .  S
N486        N487   1.324       .  A
N486        N488   1.311       .  A
N487        C496   1.355       .  A
N488       Mn492   2.210       .  S
N488        N489   1.324       .  A
N489        C496   1.364       .  A
N490       Mn493   2.261       .  S
N490        N491   1.324       .  A
N491        C495   1.370       .  A
Mn492       N618   2.244       .  S
Mn493       N754   2.223   1_545  S
Cl494      Mn738   2.566   1_545  S
Cl494     Mn1162   2.533   1_545  S
Cl494      Mn895   2.540       .  S
C497        C498   1.415       .  A
C497        C502   1.404       .  A
C497        H504   1.081       .  S
C498       C1035   1.411       .  A
C499        C500   1.401       .  A
C499       Br506   1.868       .  S
C500        H505   1.083       .  S
C501       C1036   1.396       .  A
C501        C502   1.398       .  A
C502       Br503   1.901       .  S
C507        C508   1.403       .  A
C507        C512   1.388       .  A
C507        H514   1.083       .  S
C509       C1044   1.423       .  A
C509        C510   1.417       .  A
C509       Br516   1.944       .  S
C510       C1047   1.396       .  A
C510        H515   1.070       .  S
C511        C512   1.406       .  A
C512       Br513   1.919       .  S
C517        C518   1.422       .  A
C517        C522   1.422       .  A
C517        H524   1.079       .  S
C518        C519   1.432       .  A
C519        C520   1.415       .  A
C519       Br526   1.925       .  S
C520        C521   1.425       .  A
C520        H525   1.076       .  S
C521        C522   1.435       .  A
C522       Br523   1.922       .  S
C527        C528   1.406       .  A
C527        C532   1.432       .  A
C527        H534   1.078       .  S
C528        C529   1.409       .  A
C529        C530   1.434       .  A
C529       Br536   1.892       .  S
C530        C531   1.422       .  A
C530        H535   1.081       .  S
C531        C532   1.449       .  A
C532       Br533   1.923       .  S
C537        C572   1.533   1_554  S
C537        C662   1.608       .  S
C537        C550   1.517       .  S
C537        C561   1.542       .  S
C538        C629   1.567       .  S
C538        C665   1.614       .  S
C538        C594   1.549       .  S
C538        C605   1.526       .  S
C539        C584   1.531       .  S
C539        C652   1.608       .  S
C539        C560   1.539       .  S
C539        C571   1.539       .  S
C540        C617   1.542       .  S
C540        C655   1.610       .  S
C540        C595   1.530       .  S
C540        C630   1.546       .  S
N541       Mn570   2.198   1_554  S
N541        N676   1.334       .  A
N542        C549   1.351       .  A
N543       Mn559   2.186       .  S
N543        N545   1.317       .  A
N543        N544   1.318       .  A
N544        C550   1.351   1_556  A
N545       Mn972   2.211       .  S
N545        N546   1.321       .  A
N546        C550   1.354   1_556  A
N547       Mn559   2.157   1_554  S
N547        N943   1.321       .  A
N547        N682   1.299       .  A
N548        C951   1.339       .  A
C549        C645   1.522       .  S
N551       Mn715   2.204       .  S
N551        N557   1.311       .  A
N551        N552   1.316       .  A
N552        C560   1.348       .  A
N553        N554   1.327   1_556  A
N553        N555   1.314       .  A
N554        C561   1.356       .  A
N555       Mn581   2.224       .  S
N555        N556   1.325       .  A
N556        C561   1.366   1_556  A
N557       Mn559   2.216       .  S
N557        N558   1.328       .  A
N558        C560   1.368       .  A
Mn559       N687   2.247       .  S
Mn559      Cl717   2.558       .  S
N562       Mn570   2.228       .  S
N562        N563   1.326       .  A
N562        N568   1.314       .  A
N563        C571   1.367       .  A
N564       Mn582   2.234       .  S
N564        N566   1.314       .  A
N564        N565   1.327       .  A
N565        C572   1.367       .  A
N566        N567   1.316   1_556  A
N567        C572   1.347   1_554  A
N568       Mn716   2.218       .  S
N568        N569   1.322       .  A
N569        C571   1.352       .  A
Mn570       N700   2.182       .  S
N573        N574   1.323       .  A
N573        N579   1.317       .  A
N574        C584   1.356       .  A
N575       Mn582   2.178       .  S
N575        N576   1.320       .  A
N577       Mn581   2.180       .  S
N577        N977   1.323       .  A
N577        N578   1.321       .  A
N579       Mn582   2.218       .  S
N579        N580   1.324       .  A
N580        C584   1.357       .  A
Mn581       N975   2.208       .  S
Mn581      Cl583   2.534       .  S
Cl583      Mn838   2.538       .  S
Cl583      Mn984   2.548       .  S
C585       N1112   1.344       .  A
C585        N712   1.341       .  A
C585        C635   1.488       .  S
N586       Mn615   2.219       .  S
N586        N587   1.322       .  A
N586        N592   1.316       .  A
N587        C594   1.362       .  A
N588       Mn604   2.180       .  S
N588        N590   1.309       .  A
N588        N589   1.318       .  A
N589        C595   1.360       .  A
N590       Mn749   2.215       .  S
N590        N591   1.322       .  A
N591        C595   1.352       .  A
N592        N593   1.331       .  A
N593        C594   1.361       .  A
N596      Mn1028   2.210       .  S
N596        N602   1.318       .  A
N596        N597   1.315       .  A
N597        C605   1.348       .  A
N598       Mn604   2.110       .  S
N598        N733   1.299       .  A
N598       N1002   1.322       .  A
N599       C1008   1.323       .  A
N600       Mn626   2.174       .  S
N600        N735   1.315       .  A
N601        C606   1.344       .  A
N602       Mn604   2.176       .  S
N602        N603   1.320       .  A
N603        C605   1.352       .  A
Mn604       N726   2.264       .  S
Mn604      Cl762   2.566       .  S
C606        C642   1.432       .  S
N607       Mn615   2.166       .  S
N607        N608   1.316       .  A
N607       N1015   1.325       .  A
N609       Mn627   2.225       .  S
N609        N611   1.317       .  A
N609        N610   1.323       .  A
N610        C617   1.358       .  A
N611        N612   1.322       .  A
N612        C617   1.354       .  A
N613       Mn627   2.208       .  S
N613        N614   1.322       .  A
Mn615      N1013   2.194       .  S
Mn615      Cl628   2.549       .  S
C616        N742   1.336       .  A
C616       N1150   1.347       .  A
C616        C632   1.469       .  S
N618        N619   1.334       .  A
N618        N624   1.316       .  A
N619        C629   1.360       .  A
N620       Mn761   2.223       .  S
N620        N621   1.324       .  A
N620        N622   1.311       .  A
N621        C630   1.355       .  A
N622       Mn626   2.210       .  S
N622        N623   1.324       .  A
N623        C630   1.364       .  A
N624       Mn627   2.261       .  S
N624        N625   1.324       .  A
N625        C629   1.370       .  A
Mn626       N752   2.244       .  S
Cl628      Mn894   2.533       .  S
Cl628     Mn1029   2.540       .  S
C631        C632   1.415       .  A
C631        C636   1.404       .  A
C631        H638   1.081       .  S
C632       C1169   1.411       .  A
C633        C634   1.401       .  A
C633       Br640   1.869       .  S
C634        H639   1.083       .  S
C635       C1170   1.396       .  A
C635        C636   1.398       .  A
C636       Br637   1.901       .  S
C641        C642   1.403       .  A
C641        C646   1.388       .  A
C641        H648   1.083       .  S
C643       C1178   1.423       .  A
C643        C644   1.417       .  A
C643       Br650   1.944       .  S
C644       C1181   1.396       .  A
C644        H649   1.070       .  S
C645        C646   1.406       .  A
C646       Br647   1.919       .  S
C651        C652   1.422       .  A
C651        C656   1.422       .  A
C651        H658   1.079       .  S
C652        C653   1.432       .  A
C653        C654   1.415       .  A
C653       Br660   1.925       .  S
C654        C655   1.425       .  A
C654        H659   1.076       .  S
C655        C656   1.435       .  A
C656       Br657   1.922       .  S
C661        C662   1.406       .  A
C661        C666   1.432       .  A
C661        H668   1.078       .  S
C662        C663   1.409       .  A
C663        C664   1.434       .  A
C663       Br670   1.892       .  S
C664        C665   1.422       .  A
C664        H669   1.081       .  S
C665        C666   1.449       .  A
C666       Br667   1.923       .  S
C671        C706   1.533   1_554  S
C671        C796   1.608       .  S
C671        C684   1.517       .  S
C671        C695   1.542       .  S
C672        C763   1.567       .  S
C672        C799   1.614       .  S
C672        C728   1.549       .  S
C672        C739   1.526       .  S
C673        C718   1.531       .  S
C673        C786   1.608       .  S
C673        C694   1.539       .  S
C673        C705   1.539       .  S
C674        C751   1.542       .  S
C674        C789   1.610       .  S
C674        C729   1.530       .  S
C674        C764   1.546       .  S
N675       Mn704   2.198   1_544  S
N676        C683   1.351       .  A
N677       Mn693   2.186       .  S
N677        N679   1.317       .  A
N677        N678   1.318       .  A
N678        C684   1.351   1_556  A
N679      Mn1106   2.211       .  S
N679        N680   1.321       .  A
N680        C684   1.354   1_556  A
N681       Mn693   2.157   1_554  S
N681       N1077   1.321   1_565  A
N682       C1085   1.339       .  A
C683        C779   1.522       .  S
N685        N691   1.311       .  A
N685        N686   1.316       .  A
N686        C694   1.348       .  A
N687        N688   1.327   1_556  A
N687        N689   1.314       .  A
N688        C695   1.356       .  A
N689       Mn715   2.224       .  S
N689        N690   1.325       .  A
N690        C695   1.366   1_556  A
N691       Mn693   2.216       .  S
N691        N692   1.328       .  A
N692        C694   1.368       .  A
N696       Mn704   2.228       .  S
N696        N697   1.326       .  A
N696        N702   1.314       .  A
N697        C705   1.367       .  A
N698       Mn716   2.234       .  S
N698        N700   1.314       .  A
N698        N699   1.327       .  A
N699        C706   1.367       .  A
N700        N701   1.316   1_556  A
N701        C706   1.347   1_554  A
N702        N703   1.322       .  A
N703        C705   1.352       .  A
N707        N708   1.323       .  A
N707        N713   1.317       .  A
N708        C718   1.356       .  A
N709       Mn716   2.178       .  S
N709        N710   1.320       .  A
N711       Mn715   2.180       .  S
N711       N1111   1.323       .  A
N711        N712   1.321       .  A
N713       Mn716   2.218       .  S
N713        N714   1.324       .  A
N714        C718   1.357       .  A
Mn715      N1109   2.208       .  S
Mn715      Cl717   2.534       .  S
Cl717      Mn972   2.538       .  S
Cl717     Mn1118   2.548       .  S
C719        N844   1.344       .  A
C719        C769   1.488       .  S
N720       Mn749   2.219       .  S
N720        N721   1.322       .  A
N720        N726   1.316       .  A
N721        C728   1.362       .  A
N722       Mn738   2.180       .  S
N722        N724   1.309       .  A
N722        N723   1.318       .  A
N723        C729   1.360       .  A
N724        N725   1.322       .  A
N725        C729   1.352       .  A
N726        N727   1.331       .  A
N727        C728   1.361       .  A
N730      Mn1162   2.210       .  S
N730        N736   1.318       .  A
N730        N731   1.315       .  A
N731        C739   1.348       .  A
N732       Mn738   2.110       .  S
N732       N1136   1.322       .  A
N733       C1142   1.323       .  A
N734       Mn760   2.174       .  S
N735        C740   1.344       .  A
N736       Mn738   2.176       .  S
N736        N737   1.320       .  A
N737        C739   1.352       .  A
C740        C776   1.432       .  S
N741       Mn749   2.166       .  S
N741        N742   1.316       .  A
N741       N1149   1.325       .  A
N743       Mn761   2.225       .  S
N743        N745   1.317       .  A
N743        N744   1.323       .  A
N744        C751   1.358       .  A
N745        N746   1.322       .  A
N746        C751   1.354       .  A
N747       Mn761   2.208       .  S
N747        N748   1.322       .  A
Mn749      N1147   2.194       .  S
Mn749      Cl762   2.549       .  S
C750        N882   1.347       .  A
C750        C766   1.469       .  S
N752        N753   1.334       .  A
N752        N758   1.316       .  A
N753        C763   1.360       .  A
N754        N755   1.324       .  A
N754        N756   1.311       .  A
N755        C764   1.355       .  A
N756       Mn760   2.210       .  S
N756        N757   1.324       .  A
N757        C764   1.364       .  A
N758       Mn761   2.261       .  S
N758        N759   1.324       .  A
N759        C763   1.370       .  A
Cl762     Mn1028   2.533       .  S
Cl762     Mn1163   2.540       .  S
C765        C766   1.415       .  A
C765        C770   1.404       .  A
C765        H772   1.081       .  S
C766        C901   1.411       .  A
C767        C768   1.401       .  A
C767       Br774   1.869       .  S
C768        H773   1.083       .  S
C769        C902   1.396       .  A
C769        C770   1.398       .  A
C770       Br771   1.901       .  S
C775        C776   1.403       .  A
C775        C780   1.388       .  A
C775        H782   1.083       .  S
C777        C910   1.423       .  A
C777        C778   1.416       .  A
C777       Br784   1.944       .  S
C778        C913   1.396       .  A
C778        H783   1.072       .  S
C779        C780   1.406       .  A
C780       Br781   1.919       .  S
C785        C786   1.422       .  A
C785        C790   1.422       .  A
C785        H792   1.079       .  S
C786        C787   1.432       .  A
C787        C788   1.415       .  A
C787       Br794   1.925       .  S
C788        C789   1.425       .  A
C788        H793   1.076       .  S
C789        C790   1.435       .  A
C790       Br791   1.922   1_565  S
C795        C796   1.406       .  A
C795        C800   1.432       .  A
C795        H802   1.078       .  S
C796        C797   1.409       .  A
C797        C798   1.434       .  A
C797       Br804   1.892       .  S
C798        C799   1.422       .  A
C798        H803   1.081       .  S
C799        C800   1.449       .  A
C800       Br801   1.923       .  S
C805        C840   1.533   1_554  S
C805        C930   1.608       .  S
C805        C818   1.517       .  S
C805        C829   1.542       .  S
C806        C897   1.567       .  S
C806        C933   1.614       .  S
C806        C862   1.549       .  S
C806        C873   1.526       .  S
C807        C852   1.531       .  S
C807        C920   1.608       .  S
C807        C828   1.539       .  S
C807        C839   1.539       .  S
C808        C885   1.542       .  S
C808        C923   1.610       .  S
C808        C863   1.530       .  S
C808        C898   1.546       .  S
N809       Mn838   2.198   1_554  S
N809        N944   1.334       .  A
N810       N1077   1.334       .  A
N810        C817   1.351       .  A
N811       Mn827   2.186       .  S
N811        N813   1.317       .  A
N811        N812   1.318       .  A
N812        C818   1.351   1_556  A
N813        N814   1.321       .  A
N814        C818   1.354   1_556  A
N815       Mn827   2.157   1_554  S
N815        N950   1.299       .  A
N816       N1083   1.299   1_545  A
C817        C913   1.522       .  S
N819       Mn983   2.204       .  S
N819        N825   1.311       .  A
N819        N820   1.316       .  A
N820        C828   1.348       .  A
N821      Mn1095   2.247   1_545  S
N821        N822   1.327   1_556  A
N821        N823   1.314       .  A
N822        C829   1.356       .  A
N823       Mn849   2.224       .  S
N823        N824   1.325       .  A
N824        C829   1.366   1_556  A
N825       Mn827   2.216       .  S
N825        N826   1.328       .  A
N826        C828   1.368       .  A
Mn827       N955   2.247       .  S
Mn827      Cl985   2.558   1_655  S
N830       Mn838   2.228       .  S
N830        N831   1.326       .  A
N830        N836   1.314       .  A
N831        C839   1.367       .  A
N832       Mn850   2.234       .  S
N832        N834   1.314       .  A
N832        N833   1.327       .  A
N833        C840   1.367       .  A
N834      Mn1106   2.182   1_545  S
N834        N835   1.316   1_556  A
N835        C840   1.347   1_554  A
N836       Mn984   2.218       .  S
N836        N837   1.322       .  A
N837        C839   1.352       .  A
Mn838       N968   2.182       .  S
N841        N842   1.323       .  A
N841        N847   1.317       .  A
N842        C852   1.356       .  A
N843       Mn850   2.178       .  S
N843        N844   1.320   1_545  A
N845       Mn849   2.180       .  S
N845        N846   1.321   1_545  A
N846       C1121   1.341       .  A
N847       Mn850   2.218       .  S
N847        N848   1.324       .  A
N848        C852   1.357       .  A
Mn849      N1087   2.204   1_545  S
Mn849      Cl851   2.534   1_655  S
Mn850      N1104   2.218   1_545  S
Cl851     Mn1095   2.558   1_445  S
C853        N980   1.341       .  A
C853        C903   1.488       .  S
N854       Mn883   2.219       .  S
N854        N855   1.322       .  A
N854        N860   1.316       .  A
N855        C862   1.362       .  A
N856       Mn872   2.180       .  S
N856        N858   1.309       .  A
N856        N857   1.318       .  A
N857        C863   1.360       .  A
N858      Mn1017   2.215       .  S
N858        N859   1.322       .  A
N859        C863   1.352       .  A
N860      Mn1140   2.264   1_545  S
N860        N861   1.331       .  A
N861        C862   1.361       .  A
N864        N870   1.318       .  A
N864        N865   1.315       .  A
N865        C873   1.348       .  A
N866       Mn872   2.110       .  S
N866       N1001   1.299       .  A
N867       N1134   1.299   1_545  A
N868       Mn894   2.174       .  S
N868       N1003   1.315       .  A
N869       N1136   1.315   1_545  A
N869        C874   1.344       .  A
N870       Mn872   2.176       .  S
N870        N871   1.320       .  A
N871        C873   1.352       .  A
Mn872       N994   2.264       .  S
Mn872     Cl1030   2.566   1_655  S
C874        C910   1.432       .  S
N875       Mn883   2.166       .  S
N875        N876   1.316   1_545  A
N876       C1152   1.336       .  A
N877       Mn895   2.225       .  S
N877        N879   1.317       .  A
N877        N878   1.323       .  A
N878        C885   1.358       .  A
N879        N880   1.322       .  A
N880        C885   1.354       .  A
N881       Mn895   2.208       .  S
N881        N882   1.322   1_545  A
Mn883      N1126   2.215   1_545  S
Mn883      Cl896   2.549   1_655  S
C884       N1010   1.336       .  A
C884        C900   1.469       .  S
N886      Mn1162   2.244   1_545  S
N886        N887   1.334       .  A
N886        N892   1.316       .  A
N887        C897   1.360       .  A
N888      Mn1029   2.223       .  S
N888        N889   1.324       .  A
N888        N890   1.311       .  A
N889        C898   1.355       .  A
N890       Mn894   2.210       .  S
N890        N891   1.324       .  A
N891        C898   1.364       .  A
N892       Mn895   2.261       .  S
N892        N893   1.324       .  A
N893        C897   1.370       .  A
Mn894      N1020   2.244       .  S
Mn895      N1156   2.223   1_545  S
Cl896     Mn1140   2.566   1_445  S
C899        C900   1.415       .  A
C899        C904   1.404       .  A
C899        H906   1.081       .  S
C901        C902   1.401       .  A
C901       Br908   1.868       .  S
C902        H907   1.083       .  S
C903        C904   1.398       .  A
C904       Br905   1.901       .  S
C909        C910   1.403       .  A
C909        C914   1.388       .  A
C909        H916   1.083       .  S
C911        C912   1.417   1_655  A
C911       Br918   1.944       .  S
C912        H917   1.070   1_455  S
C913        C914   1.406       .  A
C914       Br915   1.919       .  S
C919        C920   1.422       .  A
C919        C924   1.422       .  A
C919        H926   1.079       .  S
C920        C921   1.432       .  A
C921        C922   1.415       .  A
C921       Br928   1.925       .  S
C922        C923   1.425       .  A
C922        H927   1.076       .  S
C923        C924   1.435       .  A
C924       Br925   1.922       .  S
C929        C930   1.406       .  A
C929        C934   1.432       .  A
C929        H936   1.078       .  S
C930        C931   1.409       .  A
C931        C932   1.434       .  A
C931       Br938   1.892       .  S
C932        C933   1.422       .  A
C932        H937   1.081       .  S
C933        C934   1.449       .  A
C934       Br935   1.923       .  S
C939        C974   1.533   1_554  S
C939       C1064   1.608       .  S
C939        C952   1.517       .  S
C939        C963   1.542       .  S
C940       C1031   1.567       .  S
C940       C1067   1.614       .  S
C940        C996   1.549       .  S
C940       C1007   1.526       .  S
C941        C986   1.531       .  S
C941       C1054   1.608       .  S
C941        C962   1.539       .  S
C941        C973   1.539       .  S
C942       C1019   1.542       .  S
C942       C1057   1.610       .  S
C942        C997   1.530       .  S
C942       C1032   1.546       .  S
N943       Mn972   2.198   1_554  S
N943       N1078   1.334       .  A
N944        C951   1.351       .  A
N945       Mn961   2.186       .  S
N945        N947   1.317       .  A
N945        N946   1.318       .  A
N946        C952   1.351   1_556  A
N947        N948   1.321       .  A
N948        C952   1.354   1_556  A
N949       Mn961   2.157   1_554  S
N949       N1084   1.299       .  A
C951       C1047   1.522       .  S
N953      Mn1117   2.204       .  S
N953        N959   1.311       .  A
N953        N954   1.316       .  A
N954        C962   1.348       .  A
N955        N956   1.327   1_556  A
N955        N957   1.314       .  A
N956        C963   1.356       .  A
N957       Mn983   2.224       .  S
N957        N958   1.325       .  A
N958        C963   1.366   1_556  A
N959       Mn961   2.216       .  S
N959        N960   1.328       .  A
N960        C962   1.368       .  A
Mn961      N1089   2.247       .  S
Mn961     Cl1119   2.558   1_655  S
N964       Mn972   2.228       .  S
N964        N965   1.326       .  A
N964        N970   1.314       .  A
N965        C973   1.367       .  A
N966       Mn984   2.234       .  S
N966        N968   1.314       .  A
N966        N967   1.327       .  A
N967        C974   1.367       .  A
N968        N969   1.316   1_556  A
N969        C974   1.347   1_554  A
N970      Mn1118   2.218       .  S
N970        N971   1.322       .  A
N971        C973   1.352       .  A
Mn972      N1102   2.182       .  S
N975        N976   1.323       .  A
N975        N981   1.317       .  A
N976        C986   1.356       .  A
N977       Mn984   2.178       .  S
N977        N978   1.320       .  A
N979       Mn983   2.180       .  S
N979        N980   1.321       .  A
N981       Mn984   2.218       .  S
N981        N982   1.324       .  A
N982        C986   1.357       .  A
Mn983      Cl985   2.534   1_655  S
C987       N1114   1.341       .  A
C987       C1037   1.488       .  S
N988      Mn1017   2.219       .  S
N988        N989   1.322       .  A
N988        N994   1.316       .  A
N989        C996   1.362       .  A
N990      Mn1006   2.180       .  S
N990        N992   1.309       .  A
N990        N991   1.318       .  A
N991        C997   1.360       .  A
N992      Mn1151   2.215       .  S
N992        N993   1.322       .  A
N993        C997   1.352       .  A
N994        N995   1.331       .  A
N995        C996   1.361       .  A
N998       N1004   1.318       .  A
N998        N999   1.315       .  A
N999       C1007   1.348       .  A
N1000     Mn1006   2.110       .  S
N1000      N1135   1.299       .  A
N1002     Mn1028   2.174       .  S
N1002      N1137   1.315       .  A
N1003      C1008   1.344       .  A
N1004     Mn1006   2.176       .  S
N1004      N1005   1.320       .  A
N1005      C1007   1.352       .  A
Mn1006     N1128   2.264       .  S
Mn1006    Cl1164   2.566   1_655  S
C1008      C1044   1.432       .  S
N1009     Mn1017   2.166       .  S
N1009      N1010   1.316       .  A
N1011     Mn1029   2.225       .  S
N1011      N1013   1.317       .  A
N1011      N1012   1.323       .  A
N1012      C1019   1.358       .  A
N1013      N1014   1.322       .  A
N1014      C1019   1.354       .  A
N1015     Mn1029   2.208       .  S
N1015      N1016   1.322       .  A
Mn1017    Cl1030   2.549   1_655  S
C1018      N1144   1.336       .  A
C1018      C1034   1.469       .  S
N1020      N1021   1.334       .  A
N1020      N1026   1.316       .  A
N1021      C1031   1.360       .  A
N1022     Mn1163   2.223       .  S
N1022      N1023   1.324       .  A
N1022      N1024   1.311       .  A
N1023      C1032   1.355       .  A
N1024     Mn1028   2.210       .  S
N1024      N1025   1.324       .  A
N1025      C1032   1.364       .  A
N1026     Mn1029   2.261       .  S
N1026      N1027   1.324       .  A
N1027      C1031   1.370       .  A
Mn1028     N1154   2.244       .  S
C1033      C1034   1.415       .  A
C1033      C1038   1.404       .  A
C1033      H1040   1.081       .  S
C1035      C1036   1.401       .  A
C1035     Br1042   1.869       .  S
C1036      H1041   1.083       .  S
C1037      C1038   1.398       .  A
C1038     Br1039   1.901       .  S
C1043      C1044   1.403       .  A
C1043      C1048   1.388       .  A
C1043      H1050   1.083       .  S
C1045      C1046   1.417   1_655  A
C1045     Br1052   1.944       .  S
C1046      H1051   1.070   1_455  S
C1047      C1048   1.406       .  A
C1048     Br1049   1.919       .  S
C1053      C1054   1.422       .  A
C1053      C1058   1.422       .  A
C1053      H1060   1.079       .  S
C1054      C1055   1.432       .  A
C1055      C1056   1.415       .  A
C1055     Br1062   1.925       .  S
C1056      C1057   1.425       .  A
C1056      H1061   1.076       .  S
C1057      C1058   1.435       .  A
C1058     Br1059   1.922       .  S
C1063      C1064   1.406       .  A
C1063      C1068   1.432       .  A
C1063      H1070   1.078       .  S
C1064      C1065   1.409       .  A
C1065      C1066   1.434       .  A
C1065     Br1072   1.892       .  S
C1066      C1067   1.422       .  A
C1066      H1071   1.081       .  S
C1067      C1068   1.449       .  A
C1068     Br1069   1.923       .  S
C1073      C1108   1.533   1_554  S
C1073      C1198   1.608       .  S
C1073      C1086   1.517       .  S
C1073      C1097   1.542       .  S
C1074      C1165   1.567       .  S
C1074      C1201   1.614       .  S
C1074      C1130   1.549       .  S
C1074      C1141   1.526       .  S
C1075      C1120   1.531       .  S
C1075      C1188   1.608       .  S
C1075      C1096   1.539       .  S
C1075      C1107   1.539       .  S
C1076      C1153   1.542       .  S
C1076      C1191   1.610       .  S
C1076      C1131   1.530       .  S
C1076      C1166   1.546       .  S
N1077     Mn1106   2.198   1_544  S
N1078      C1085   1.351       .  A
N1079     Mn1095   2.186       .  S
N1079      N1081   1.317       .  A
N1079      N1080   1.318       .  A
N1080      C1086   1.351   1_556  A
N1081      N1082   1.321       .  A
N1082      C1086   1.354   1_556  A
N1083     Mn1095   2.157   1_554  S
C1085      C1181   1.522       .  S
N1087      N1093   1.311       .  A
N1087      N1088   1.316       .  A
N1088      C1096   1.348       .  A
N1089      N1090   1.327   1_556  A
N1089      N1091   1.314       .  A
N1090      C1097   1.356       .  A
N1091     Mn1117   2.224       .  S
N1091      N1092   1.325       .  A
N1092      C1097   1.366   1_556  A
N1093     Mn1095   2.216       .  S
N1093      N1094   1.328       .  A
N1094      C1096   1.368       .  A
N1098     Mn1106   2.228       .  S
N1098      N1099   1.326       .  A
N1098      N1104   1.314       .  A
N1099      C1107   1.367       .  A
N1100     Mn1118   2.234       .  S
N1100      N1102   1.314       .  A
N1100      N1101   1.327       .  A
N1101      C1108   1.367       .  A
N1102      N1103   1.316   1_556  A
N1103      C1108   1.347   1_554  A
N1104      N1105   1.322       .  A
N1105      C1107   1.352       .  A
N1109      N1110   1.323       .  A
N1109      N1115   1.317       .  A
N1110      C1120   1.356       .  A
N1111     Mn1118   2.178       .  S
N1111      N1112   1.320       .  A
N1113     Mn1117   2.180       .  S
N1113      N1114   1.321       .  A
N1115     Mn1118   2.218       .  S
N1115      N1116   1.324       .  A
N1116      C1120   1.357       .  A
Mn1117    Cl1119   2.534   1_655  S
C1121      C1171   1.488       .  S
N1122     Mn1151   2.219       .  S
N1122      N1123   1.322       .  A
N1122      N1128   1.316       .  A
N1123      C1130   1.362       .  A
N1124     Mn1140   2.180       .  S
N1124      N1126   1.309       .  A
N1124      N1125   1.318       .  A
N1125      C1131   1.360       .  A
N1126      N1127   1.322       .  A
N1127      C1131   1.352       .  A
N1128      N1129   1.331       .  A
N1129      C1130   1.361       .  A
N1132      N1138   1.318       .  A
N1132      N1133   1.315       .  A
N1133      C1141   1.348       .  A
N1134     Mn1140   2.110       .  S
N1136     Mn1162   2.174       .  S
N1137      C1142   1.344       .  A
N1138     Mn1140   2.176       .  S
N1138      N1139   1.320       .  A
N1139      C1141   1.352       .  A
C1142      C1178   1.432       .  S
N1143     Mn1151   2.166       .  S
N1143      N1144   1.316       .  A
N1145     Mn1163   2.225       .  S
N1145      N1147   1.317       .  A
N1145      N1146   1.323       .  A
N1146      C1153   1.358       .  A
N1147      N1148   1.322       .  A
N1148      C1153   1.354       .  A
N1149     Mn1163   2.208       .  S
N1149      N1150   1.322       .  A
Mn1151    Cl1164   2.549   1_655  S
C1152      C1168   1.469       .  S
N1154      N1155   1.334       .  A
N1154      N1160   1.316       .  A
N1155      C1165   1.360       .  A
N1156      N1157   1.324       .  A
N1156      N1158   1.311       .  A
N1157      C1166   1.355       .  A
N1158     Mn1162   2.210       .  S
N1158      N1159   1.324       .  A
N1159      C1166   1.364       .  A
N1160     Mn1163   2.261       .  S
N1160      N1161   1.324       .  A
N1161      C1165   1.370       .  A
C1167      C1168   1.415       .  A
C1167      C1172   1.404       .  A
C1167      H1174   1.081       .  S
C1169      C1170   1.401       .  A
C1169     Br1176   1.869       .  S
C1170      H1175   1.083       .  S
C1171      C1172   1.398       .  A
C1172     Br1173   1.901       .  S
C1177      C1178   1.403       .  A
C1177      C1182   1.388       .  A
C1177      H1184   1.083       .  S
C1179      C1180   1.416   1_655  A
C1179     Br1186   1.944       .  S
C1180      H1185   1.072   1_455  S
C1181      C1182   1.406       .  A
C1182     Br1183   1.919       .  S
C1187      C1188   1.422       .  A
C1187      C1192   1.422       .  A
C1187      H1194   1.079       .  S
C1188      C1189   1.432       .  A
C1189      C1190   1.415       .  A
C1189     Br1196   1.925       .  S
C1190      C1191   1.425       .  A
C1190      H1195   1.076       .  S
C1191      C1192   1.435       .  A
C1192     Br1193   1.922   1_565  S
C1197      C1198   1.406       .  A
C1197      C1202   1.432       .  A
C1197      H1204   1.078       .  S
C1198      C1199   1.409       .  A
C1199      C1200   1.434       .  A
C1199     Br1206   1.892       .  S
C1200      C1201   1.422       .  A
C1200      H1205   1.081       .  S
C1201      C1202   1.449       .  A
C1202     Br1203   1.923       .  S
