geometry optimzed in LAMMPS
_audit_creation_date              2020-11-30 
_audit_creation_method            'lammps2cif' 
_symmetry_space_group_name_H-M    'P1' 
_symmetry_Int_Tables_number       1 
_symmetry_cell_setting            triclinic 
loop_ 
_symmetry_equiv_pos_as_xyz 
  x,y,z 
_cell_length_a                    48.91819629 
_cell_length_b                    49.315874598718295 
_cell_length_c                    45.57780409856642 
_cell_angle_alpha                 89.76036789089254 
_cell_angle_beta                  90.11059303915953 
_cell_angle_gamma                 88.99937628755815 
loop_ 
_atom_site_label 
_atom_site_type_symbol 
_atom_site_fract_x 
_atom_site_fract_y 
_atom_site_fract_z 
_atom_site_charge 
O1          O  0.41372153  0.02700585  0.21402383    -0.74400
O2          O  0.42277659  0.97303776  0.27405737    -0.74500
O3          O  0.41733459  0.97234316  0.21484694    -0.74500
O4          O  0.41923330  0.02793389  0.27287501    -0.74600
O5          O  0.37399263  0.02584723  0.27786780    -0.74500
O6          O  0.37212210  0.96975670  0.21956095    -0.74500
O7          O  0.37756781  0.97091422  0.27902957    -0.74500
O8          O  0.36845932  0.02481633  0.21840725    -0.74500
Ni9        Ni  0.41983025  0.00010403  0.24380891     1.25400
Ni10       Ni  0.37139137  0.99774246  0.24889257     1.25400
C11         C  0.38966514  0.03484292  0.20622817     0.87700
C12         C  0.40173016  0.96319484  0.28667827     0.87700
C13         C  0.39451621  0.96206263  0.20730964     0.87700
C14         C  0.39697572  0.03619058  0.28487007     0.87900
C15         C  0.40956938  0.19118145  0.49955558    -0.02500
C16         C  0.42775673  0.80222693  0.49805436    -0.02500
O17         O  0.65954143  0.97692499  0.21124374    -0.74400
O18         O  0.65736662  0.03239087  0.26849320    -0.74500
O19         O  0.65394821  0.03140282  0.20931435    -0.74500
O20         O  0.66379661  0.97790597  0.27029806    -0.74600
O21         O  0.70894667  0.98224904  0.26678706    -0.74500
O22         O  0.69915341  0.03522860  0.20608490    -0.74500
O23         O  0.70254524  0.03684477  0.26576759    -0.74500
O24         O  0.70472894  0.98038575  0.20726836    -0.74500
Ni25       Ni  0.65710934  0.00451083  0.23995922     1.25400
Ni26       Ni  0.70549450  0.00882194  0.23633670     1.25400
C27         C  0.68215552  0.96951753  0.19954331     0.87700
C28         C  0.67931959  0.04374290  0.27683526     0.87700
C29         C  0.67504458  0.04203390  0.19750201     0.87700
C30         C  0.68810831  0.97148662  0.27877352     0.87900
C31         C  0.65888537  0.20286946  0.48824022    -0.02500
C32         C  0.67909042  0.81150827  0.48850961    -0.02500
O33         O  0.06660389  0.37608204  0.28911121    -0.74400
O34         O  0.01671728  0.37107105  0.22514764    -0.74500
O35         O  0.01195020  0.37552963  0.28413647    -0.74500
O36         O  0.07179507  0.37123069  0.23008548    -0.74600
O37         O  0.07195830  0.32615001  0.23357026    -0.74500
O38         O  0.01316877  0.33056767  0.28915657    -0.74500
O39         O  0.01653394  0.32607838  0.22966965    -0.74500
O40         O  0.06836037  0.33100031  0.29305383    -0.74500
Ni41       Ni  0.04177159  0.37502294  0.25690376     1.25400
Ni42       Ni  0.04256034  0.32680027  0.26147420     1.25400
C43         C  0.07525806  0.35453454  0.30207567     0.87700
C44         C  0.00816632  0.34793736  0.21687364     0.87700
C45         C  0.00308407  0.35382834  0.29612544     0.87700
C46         C  0.08155247  0.34797520  0.22258060     0.87900
C47         C  0.23550860  0.38004024  0.51150984    -0.02500
C48         C  0.84076461  0.37525615  0.50490627    -0.02500
O49         O  0.02579609  0.60447240  0.28725306    -0.74400
O50         O  0.07428654  0.60385749  0.22201791    -0.74500
O51         O  0.08058905  0.60693790  0.28108406    -0.74500
O52         O  0.01936168  0.60227195  0.22808391    -0.74600
O53         O  0.01654985  0.64747516  0.22694468    -0.74500
O54         O  0.07807021  0.65204748  0.27782840    -0.74500
O55         O  0.07174454  0.64894603  0.21899941    -0.74500
O56         O  0.02302873  0.64962248  0.28571801    -0.74500
Ni57       Ni  0.05009770  0.60278768  0.25467858     1.25400
Ni58       Ni  0.04725185  0.65113391  0.25226512     1.25400
C59         C  0.01649929  0.62691365  0.29747205     0.87700
C60         C  0.08111792  0.62605490  0.20965529     0.87700
C61         C  0.08942204  0.63043475  0.28801556     0.87700
C62         C  0.00776716  0.62434511  0.21910977     0.87900
C63         C  0.24318893  0.63060467  0.50056594    -0.02500
C64         C  0.85111080  0.61956671  0.50567729    -0.02500
C65         C  0.86712560  0.62071477  0.47622512    -0.03200
C66         C  0.85996699  0.63809219  0.45255732    -0.05800
C67         C  0.87686286  0.64018599  0.42791096    -0.20900
C68         C  0.90093702  0.62448135  0.42557507     0.24800
C69         C  0.90665694  0.60510376  0.44759883    -0.18500
C70         C  0.88992791  0.60314434  0.47227358    -0.08400
C71         C  0.91910395  0.62861591  0.39968258    -0.18700
C72         C  0.94498492  0.61889653  0.39810138    -0.23500
C73         C  0.96269584  0.62195482  0.37193522     0.26900
C74         C  0.98167806  0.60116148  0.36581607    -0.20300
C75         C  0.99899201  0.60296707  0.34165408    -0.09900
C76         C  0.99823441  0.62596206  0.32333122    -0.10500
C77         C  0.97969435  0.64720674  0.32977279    -0.03400
C78         C  0.96187814  0.64514385  0.35378467    -0.18500
H79         H  0.84150811  0.65038744  0.45271682     0.10600
H80         H  0.87123289  0.65446748  0.41071844     0.10600
H81         H  0.92397387  0.59130490  0.44618839     0.10300
H82         H  0.89550599  0.58851089  0.48912727     0.11400
H83         H  0.91084314  0.64022948  0.38130304     0.11500
H84         H  0.95360453  0.60711492  0.41607026     0.13400
H85         H  0.98287861  0.58323100  0.37961288     0.09900
H86         H  0.01318935  0.58634198  0.33744490     0.12000
H87         H  0.97871603  0.66517328  0.31604433     0.08600
H88         H  0.94788590  0.66182126  0.35838535     0.11400
C89         C  0.87066833  0.62902560  0.03327086    -0.03200
C90         C  0.89761303  0.63833482  0.02966685    -0.05800
C91         C  0.91499136  0.64086992  0.05377593    -0.20900
C92         C  0.90573755  0.63537421  0.08221179     0.24800
C93         C  0.87786672  0.63001959  0.08636517    -0.18500
C94         C  0.86044154  0.62757225  0.06219860    -0.08400
C95         C  0.92630232  0.63292938  0.10615603    -0.18700
C96         C  0.92025698  0.63258743  0.13491988    -0.23500
C97         C  0.94180545  0.62855469  0.15743044     0.26900
C98         C  0.94118872  0.64449479  0.18276937    -0.20300
C99         C  0.96237647  0.64246411  0.20327403    -0.09900
C100        C  0.98402761  0.62377185  0.19926913    -0.10500
C101        C  0.98384790  0.60660557  0.17483097    -0.03400
C102        C  0.96300919  0.60917515  0.15384707    -0.18500
H103        H  0.90591632  0.64291939  0.00832667     0.10600
H104        H  0.93609985  0.64619875  0.05004563     0.10600
H105        H  0.86965852  0.62603700  0.10791724     0.10300
H106        H  0.83941588  0.62201139  0.06599584     0.11400
H107        H  0.94763950  0.63103741  0.09971200     0.11500
H108        H  0.89961254  0.63694407  0.14236590     0.13400
H109        H  0.92487071  0.65929187  0.18609715     0.09900
H110        H  0.96210334  0.65580325  0.22210073     0.12000
H111        H  0.00041045  0.59212196  0.17132133     0.08600
H112        H  0.96354931  0.59619583  0.13474409     0.11400
C113        C  0.11274774  0.63311993  0.30832142    -0.03200
C114        C  0.12930136  0.65612239  0.30677233    -0.05800
C115        C  0.15025561  0.65987275  0.32716416    -0.20900
C116        C  0.15442349  0.64116063  0.34997540     0.24800
C117        C  0.13828510  0.61785670  0.35124494    -0.18500
C118        C  0.11778568  0.61372212  0.33037070    -0.08400
C119        C  0.17545198  0.64627906  0.37254082    -0.18700
C120        C  0.16963280  0.64370196  0.40119479    -0.23500
C121        C  0.18984311  0.64663645  0.42521814     0.26900
C122        C  0.18011988  0.65172401  0.45355414    -0.20300
C123        C  0.19748362  0.64928538  0.47776367    -0.09900
C124        C  0.22479117  0.63997288  0.47440895    -0.10500
C125        C  0.23531192  0.63891338  0.44556058    -0.03400
C126        C  0.21796426  0.64167618  0.42123090    -0.18500
H127        H  0.12592309  0.67130671  0.28984992     0.10600
H128        H  0.16261895  0.67783983  0.32572493     0.10600
H129        H  0.14150828  0.60291954  0.36845074     0.10300
H130        H  0.10529226  0.59586775  0.33205377     0.11400
H131        H  0.19521187  0.65356130  0.36553297     0.11500
H132        H  0.14880394  0.63895179  0.40744750     0.13400
H133        H  0.15872704  0.65673012  0.45709739     0.09900
H134        H  0.18886068  0.65384129  0.49899064     0.12000
H135        H  0.25656241  0.63340515  0.44193793     0.08600
H136        H  0.22634413  0.63801192  0.39963808     0.11400
C137        C  0.10012272  0.62458279  0.18435805    -0.03200
C138        C  0.10402170  0.59979435  0.16970960    -0.05800
C139        C  0.12234647  0.59752438  0.14641075    -0.20900
C140        C  0.13761045  0.61981253  0.13726335     0.24800
C141        C  0.13363589  0.64481856  0.15171021    -0.18500
C142        C  0.11498815  0.64716157  0.17501048    -0.08400
C143        C  0.15634987  0.61604386  0.11180428    -0.18700
C144        C  0.17728878  0.63244004  0.10532151    -0.23500
C145        C  0.19537021  0.62876247  0.07919214     0.26900
C146        C  0.21998621  0.64289140  0.07799396    -0.20300
C147        C  0.23650373  0.64196991  0.05295542    -0.09900
C148        C  0.22842199  0.62752298  0.02774010    -0.10500
C149        C  0.20488390  0.61145458  0.03019919    -0.03400
C150        C  0.18829706  0.61253487  0.05510380    -0.18500
H151        H  0.09276473  0.58202790  0.17617467     0.10600
H152        H  0.12470672  0.57812006  0.13555689     0.10600
H153        H  0.14444578  0.66269422  0.14486371     0.10300
H154        H  0.11240278  0.66652116  0.18587515     0.11400
H155        H  0.15312027  0.59817074  0.09858809     0.11500
H156        H  0.18184863  0.64906686  0.11994881     0.13400
H157        H  0.22640644  0.65496622  0.09649055     0.09900
H158        H  0.25547923  0.65278681  0.05373759     0.12000
H159        H  0.19846352  0.59912239  0.01190916     0.08600
H160        H  0.16955850  0.60129225  0.05466583     0.11400
C161        C  0.84138458  0.58971336  0.50818309    -0.03200
C162        C  0.85476664  0.57262210  0.03240708    -0.05800
C163        C  0.84708851  0.54562374  0.03434586    -0.20900
C164        C  0.82901096  0.53470416  0.01396878     0.24800
C165        C  0.81504394  0.55207555  0.48813585    -0.18500
C166        C  0.82359186  0.57906681  0.48676615    -0.08400
C167        C  0.82304172  0.50540990  0.01622550    -0.18700
C168        C  0.81282830  0.48997986  0.48940970    -0.23500
C169        C  0.81465122  0.45993837  0.49157174     0.26900
C170        C  0.82664223  0.44553946  0.46842793    -0.20300
C171        C  0.83383050  0.41818748  0.47176547    -0.09900
C172        C  0.82973710  0.40452937  0.49874255    -0.10500
C173        C  0.81817727  0.41782799  0.02261042    -0.03400
C174        C  0.81182442  0.44546281  0.01970448    -0.18500
H175        H  0.87033287  0.57896222  0.04755808     0.10600
H176        H  0.85618578  0.53289137  0.05130606     0.10600
H177        H  0.80093885  0.54489937  0.47170684     0.10300
H178        H  0.81609264  0.59188686  0.46904713     0.11400
H179        H  0.82658712  0.49574375  0.03739639     0.11500
H180        H  0.81268090  0.49902151  0.46764351     0.13400
H181        H  0.83175954  0.45580922  0.44815932     0.09900
H182        H  0.84303113  0.40818343  0.45311459     0.12000
H183        H  0.81232801  0.40742857  0.04255117     0.08600
H184        H  0.80113669  0.45570123  0.03736383     0.11400
C185        C  0.25265690  0.60046108  0.49713710    -0.03200
C186        C  0.27014312  0.58842764  0.51846140    -0.05800
C187        C  0.27605446  0.56049629  0.51840490    -0.20900
C188        C  0.26411005  0.54358506  0.49752951     0.24800
C189        C  0.24754643  0.55538807  0.47561752    -0.18500
C190        C  0.24149081  0.58310508  0.47571964    -0.08400
C191        C  0.26720787  0.51356786  0.50022071    -0.18700
C192        C  0.24618116  0.49733603  0.49382528    -0.23500
C193        C  0.24566499  0.46767479  0.49924371     0.26900
C194        C  0.22019701  0.45627423  0.50445839    -0.20300
C195        C  0.21780227  0.42854186  0.50866135    -0.09900
C196        C  0.24079827  0.41080602  0.50762023    -0.10500
C197        C  0.26647764  0.42228532  0.50152290    -0.03400
C198        C  0.26892308  0.45051826  0.49781957    -0.18500
H199        H  0.27856876  0.60067474  0.53582841     0.10600
H200        H  0.28887918  0.55190606  0.53559840     0.10600
H201        H  0.23838810  0.54304037  0.45878736     0.10300
H202        H  0.22994874  0.58849496  0.95472702     0.11400
H203        H  0.28557752  0.50508341  0.51034474     0.11500
H204        H  0.22699066  0.50663280  0.48666373     0.13400
H205        H  0.20189727  0.46895033  0.50538944     0.09900
H206        H  0.19737486  0.42017814  0.01160812     0.12000
H207        H  0.28460690  0.40974540  0.49890266     0.08600
H208        H  0.28877034  0.45875320  0.49291278     0.11400
C209        C  0.86191577  0.37262161  0.03569024    -0.03200
C210        C  0.87107054  0.39568911  0.05094281    -0.05800
C211        C  0.88793040  0.39314576  0.07553410    -0.20900
C212        C  0.89719288  0.36766657  0.08540893     0.24800
C213        C  0.88912464  0.34452277  0.06989732    -0.18500
C214        C  0.87209643  0.34705358  0.04522843    -0.08400
C215        C  0.91555792  0.36679396  0.11154388    -0.18700
C216        C  0.93044494  0.34500278  0.12054059    -0.23500
C217        C  0.95015468  0.34610326  0.14548026     0.26900
C218        C  0.95751079  0.32209970  0.16048200    -0.20300
C219        C  0.97637453  0.32247469  0.18368442    -0.09900
C220        C  0.98838224  0.34690809  0.19221871    -0.10500
C221        C  0.98132175  0.37081009  0.17687799    -0.03400
C222        C  0.96262961  0.37042058  0.15373865    -0.18500
H223        H  0.86631685  0.41606036  0.04363131     0.10600
H224        H  0.89432692  0.41142268  0.08653155     0.10600
H225        H  0.89573117  0.32440929  0.07655030     0.10300
H226        H  0.86665669  0.32887667  0.03347527     0.11400
H227        H  0.91719204  0.38558683  0.12365648     0.11500
H228        H  0.92844228  0.32571335  0.10953069     0.13400
H229        H  0.94850689  0.30302873  0.15433587     0.09900
H230        H  0.98146736  0.30368801  0.19497109     0.12000
H231        H  0.99045024  0.38994140  0.18255793     0.08600
H232        H  0.95857575  0.38918833  0.14205324     0.11400
C233        C  0.86031242  0.36551804  0.48010558    -0.03200
C234        C  0.85640358  0.34177148  0.46340414    -0.05800
C235        C  0.87382050  0.33524297  0.43999469    -0.20900
C236        C  0.89576444  0.35193750  0.43285405     0.24800
C237        C  0.90126378  0.37412214  0.45101034    -0.18500
C238        C  0.88405065  0.38056477  0.47440285    -0.08400
C239        C  0.91298918  0.34563997  0.40679347    -0.18700
C240        C  0.92519913  0.36531886  0.39119438    -0.23500
C241        C  0.94353419  0.36087439  0.36553102     0.26900
C242        C  0.95147446  0.38369735  0.34933795    -0.20300
C243        C  0.97019560  0.38126869  0.32637713    -0.09900
C244        C  0.98155118  0.35586935  0.31894903    -0.10500
C245        C  0.97322134  0.33283781  0.33467307    -0.03400
C246        C  0.95446469  0.33527785  0.35777685    -0.18500
H247        H  0.84002878  0.32802490  0.46811307     0.10600
H248        H  0.86981363  0.31736519  0.42705651     0.10600
H249        H  0.91890964  0.38659509  0.44724950     0.10300
H250        H  0.88867678  0.39815250  0.48754568     0.11400
H251        H  0.91446604  0.32468347  0.39981062     0.11500
H252        H  0.92130252  0.38628334  0.39735401     0.13400
H253        H  0.94349962  0.40367724  0.35479786     0.09900
H254        H  0.97614435  0.39944597  0.31479548     0.12000
H255        H  0.98171449  0.31298122  0.32961908     0.08600
H256        H  0.94932700  0.31718120  0.36986162     0.11400
C257        C  0.09248472  0.35730019  0.32846893    -0.03200
C258        C  0.09032244  0.38102316  0.34536068    -0.05800
C259        C  0.10553359  0.38369081  0.37106294    -0.20900
C260        C  0.12376641  0.36305986  0.37996544     0.24800
C261        C  0.12610232  0.33930269  0.36309519    -0.18500
C262        C  0.11034766  0.33634245  0.33766248    -0.08400
C263        C  0.13971652  0.36674431  0.40719544    -0.18700
C264        C  0.16590918  0.35846430  0.40961672    -0.23500
C265        C  0.18259390  0.36417615  0.43589586     0.26900
C266        C  0.21014660  0.37041236  0.43229522    -0.20300
C267        C  0.22644323  0.37591828  0.45659730    -0.09900
C268        C  0.21610186  0.37386233  0.48545538    -0.10500
C269        C  0.18800023  0.36837284  0.48875109    -0.03400
C270        C  0.17154903  0.36343953  0.46429196    -0.18500
H271        H  0.07642164  0.39735600  0.33900373     0.10600
H272        H  0.10331285  0.40206757  0.38385190     0.10600
H273        H  0.13968759  0.32286204  0.36985041     0.10300
H274        H  0.11223054  0.31780075  0.32512350     0.11400
H275        H  0.13044734  0.37865777  0.42466963     0.11500
H276        H  0.17606590  0.34922815  0.39087208     0.13400
H277        H  0.21898898  0.37145656  0.41055255     0.09900
H278        H  0.24758250  0.38118748  0.45299721     0.12000
H279        H  0.17824820  0.36850195  0.50997429     0.08600
H280        H  0.15022943  0.35879734  0.46765628     0.11400
C281        C  0.22136605  0.37356937  0.04008637    -0.03200
C282        C  0.22199997  0.39301120  0.06278982    -0.05800
C283        C  0.20927797  0.38834536  0.08964580    -0.20900
C284        C  0.19593576  0.36397085  0.09520907     0.24800
C285        C  0.19726910  0.34345087  0.07384661    -0.18500
C286        C  0.21024733  0.34806817  0.04690964    -0.08400
C287        C  0.18061340  0.36151185  0.12330730    -0.18700
C288        C  0.16100411  0.34322831  0.12847203    -0.23500
C289        C  0.14282677  0.34439401  0.15466483     0.26900
C290        C  0.12964978  0.32077949  0.16388990    -0.20300
C291        C  0.11046174  0.32168976  0.18666159    -0.09900
C292        C  0.10368312  0.34639048  0.20038823    -0.10500
C293        C  0.11722591  0.36993107  0.19152769    -0.03400
C294        C  0.13653158  0.36898846  0.16895748    -0.18500
H295        H  0.23235785  0.41204143  0.06018181     0.10600
H296        H  0.20945427  0.40420678  0.10602366     0.10600
H297        H  0.18840511  0.32383753  0.07767477     0.10300
H298        H  0.21083050  0.33193771  0.03086607     0.11400
H299        H  0.18457526  0.37675190  0.13981438     0.11500
H300        H  0.15716976  0.32738671  0.11265067     0.13400
H301        H  0.13389789  0.30163219  0.15311169     0.09900
H302        H  0.10031659  0.30319448  0.19287477     0.12000
H303        H  0.11244936  0.38928938  0.20159542     0.08600
H304        H  0.14550159  0.38783556  0.16201010     0.11400
C305        C  0.69998709  0.78750169  0.48909758    -0.03200
C306        C  0.72803503  0.79381972  0.49107447    -0.05800
C307        C  0.74820417  0.77364131  0.49228725    -0.20900
C308        C  0.74126760  0.74630269  0.49159501     0.24800
C309        C  0.71356492  0.73950899  0.48856472    -0.18500
C310        C  0.69316019  0.75988611  0.48691024    -0.06800
C311        C  0.76384475  0.72581879  0.49273509    -0.18700
C312        C  0.76134725  0.70073236  0.50408575    -0.23500
C313        C  0.78446106  0.68064695  0.50587407     0.26900
C314        C  0.77858345  0.65320834  0.51018887    -0.20300
C315        C  0.79949182  0.63348528  0.51090363    -0.09900
C316        C  0.82708255  0.64055138  0.50652888    -0.10500
C317        C  0.83290369  0.66844935  0.50457973    -0.03400
C318        C  0.81203748  0.68814084  0.50406518    -0.18500
H319        H  0.73431417  0.81474555  0.49223701     0.10600
H320        H  0.76939164  0.77947353  0.49415560     0.10600
H321        H  0.70766945  0.71854081  0.48671539     0.10300
H322        H  0.67232941  0.75373671  0.48357863     0.11400
H323        H  0.78349309  0.73234262  0.48465375     0.11500
H324        H  0.74154189  0.69444506  0.51209566     0.13400
H325        H  0.75761783  0.64691833  0.51282860     0.09900
H326        H  0.79360865  0.61286506  0.51514616     0.12000
H327        H  0.85386417  0.67497266  0.50273111     0.08600
H328        H  0.81784742  0.70912543  0.50247929     0.11400
C329        C  0.67703894  0.22825676  0.48673465    -0.03200
C330        C  0.69441129  0.23779720  0.96026638    -0.05800
C331        C  0.71141021  0.26022906  0.96033213    -0.20900
C332        C  0.71333312  0.27678023  0.98511473     0.24800
C333        C  0.69607349  0.27172919  0.00908063    -0.18500
C334        C  0.67889216  0.24930090  0.00895210    -0.08400
C335        C  0.73388327  0.29866859  0.98493804    -0.18700
C336        C  0.74512786  0.30893448  0.00945605    -0.23500
C337        C  0.76906872  0.32723585  0.00908029     0.26900
C338        C  0.78525908  0.32911114  0.03440085    -0.20300
C339        C  0.80908252  0.34440960  0.03445226    -0.09900
C340        C  0.81477628  0.35777870  0.50714262    -0.10500
C341        C  0.80025835  0.35752447  0.98418499    -0.03400
C342        C  0.77638348  0.34240333  0.98421992    -0.18500
H343        H  0.68961332  0.22441270  0.44097529     0.10600
H344        H  0.72362287  0.26429295  0.94105045     0.10600
H345        H  0.69580848  0.28490702  0.02798867     0.10300
H346        H  0.66608370  0.24574469  0.02788375     0.11400
H347        H  0.74209494  0.30419995  0.96370817     0.11500
H348        H  0.73844436  0.30163132  0.03070736     0.13400
H349        H  0.77965144  0.31836639  0.05421172     0.09900
H350        H  0.82021596  0.34561440  0.05485717     0.12000
H351        H  0.80539711  0.36868547  0.96449587     0.08600
H352        H  0.76382085  0.34280005  0.96468384     0.11400
C353        C  0.68131220  0.94857843  0.17642212    -0.03200
C354        C  0.65579636  0.93922107  0.16693180    -0.05800
C355        C  0.65400765  0.92086779  0.14398508    -0.20900
C356        C  0.67760857  0.91107196  0.13005196     0.24800
C357        C  0.70334466  0.91983004  0.13981531    -0.18500
C358        C  0.70515257  0.93849166  0.16286042    -0.08400
C359        C  0.67398664  0.89324151  0.10432667    -0.18700
C360        C  0.69329359  0.87611074  0.09406894    -0.23500
C361        C  0.68858409  0.85888134  0.06802004     0.26900
C362        C  0.70257565  0.83402404  0.06580472    -0.20300
C363        C  0.69947584  0.81779146  0.04104974    -0.09900
C364        C  0.68313235  0.82657451  0.01701976    -0.10500
C365        C  0.66771537  0.85080689  0.02045304    -0.03400
C366        C  0.67083197  0.86700939  0.04521091    -0.18500
H367        H  0.63695895  0.94651136  0.17681467     0.10600
H368        H  0.63397379  0.91452358  0.13684904     0.10600
H369        H  0.72198044  0.91309648  0.12915858     0.10300
H370        H  0.72507511  0.94537760  0.16966337     0.11400
H371        H  0.65390242  0.89352006  0.09412888     0.11500
H372        H  0.71255061  0.87362046  0.10572584     0.13400
H373        H  0.71586460  0.82702837  0.08342126     0.09900
H374        H  0.71011075  0.79842900  0.04116547     0.12000
H375        H  0.65415361  0.85788077  0.00312739     0.08600
H376        H  0.65989155  0.88624497  0.04592073     0.11400
C377        C  0.69240882  0.95188534  0.30310998    -0.03200
C378        C  0.71768956  0.95051690  0.31784427    -0.05800
C379        C  0.72153593  0.93316405  0.34186431    -0.20900
C380        C  0.70045548  0.91636095  0.35128123     0.24800
C381        C  0.67525629  0.91735539  0.33628716    -0.18500
C382        C  0.67125554  0.93504200  0.31250333    -0.08400
C383        C  0.70473135  0.89935533  0.37789383    -0.18700
C384        C  0.69238287  0.87546666  0.38173846    -0.23500
C385        C  0.69440337  0.85909822  0.40910945     0.26900
C386        C  0.68874211  0.83142028  0.40771137    -0.20300
C387        C  0.68618474  0.81611042  0.43331308    -0.09900
C388        C  0.68786032  0.82833623  0.46124834    -0.10500
C389        C  0.69671181  0.85543167  0.46241208    -0.03400
C390        C  0.69943672  0.87075126  0.43667843    -0.18500
H391        H  0.73435114  0.96335920  0.31126085     0.10600
H392        H  0.74102368  0.93292051  0.35320388     0.10600
H393        H  0.65832995  0.90515338  0.34345737     0.10300
H394        H  0.65155030  0.93569524  0.30162947     0.11400
H395        H  0.71902750  0.90644921  0.39428160     0.11500
H396        H  0.68024755  0.86733696  0.36393943     0.13400
H397        H  0.68527158  0.82179390  0.38674113     0.09900
H398        H  0.68059848  0.79503225  0.43139365     0.12000
H399        H  0.70085711  0.86533391  0.48296805     0.08600
H400        H  0.70420429  0.89199885  0.43866214     0.11400
C401        C  0.67708278  0.06483065  0.29973462    -0.03200
C402        C  0.65118755  0.07582638  0.30659344    -0.05800
C403        C  0.64811234  0.09482782  0.32887554    -0.20900
C404        C  0.67071520  0.10315358  0.34520148     0.24800
C405        C  0.69681698  0.09246064  0.33828202    -0.18500
C406        C  0.69996134  0.07348633  0.31561368    -0.08400
C407        C  0.66580707  0.12344621  0.36862781    -0.18700
C408        C  0.68200404  0.12651456  0.39223780    -0.23500
C409        C  0.67533131  0.14594381  0.41617192     0.26900
C410        C  0.69639723  0.15514833  0.43419655    -0.20300
C411        C  0.69082769  0.17337349  0.45688530    -0.09900
C412        C  0.66402826  0.18350891  0.46195399    -0.10500
C413        C  0.64275121  0.17273751  0.44482141    -0.03400
C414        C  0.64833506  0.15446157  0.42220558    -0.18500
H415        H  0.63312215  0.06972620  0.29472027     0.10600
H416        H  0.62783583  0.10283486  0.33362114     0.10600
H417        H  0.71482297  0.09890874  0.34995662     0.10300
H418        H  0.72015098  0.06535022  0.31078600     0.11400
H419        H  0.64730395  0.13575774  0.36658430     0.11500
H420        H  0.70075922  0.11457249  0.39424932     0.13400
H421        H  0.71728524  0.14828275  0.43066757     0.09900
H422        H  0.70761892  0.17987616  0.47052593     0.12000
H423        H  0.62152584  0.17733260  0.44933341     0.08600
H424        H  0.63122124  0.14642239  0.41020383     0.11400
C425        C  0.66764900  0.18690812  0.01425686    -0.03200
C426        C  0.68924108  0.19132700  0.03421803    -0.05800
C427        C  0.69315225  0.17435694  0.05867984    -0.20900
C428        C  0.67609587  0.15220192  0.06363356     0.24800
C429        C  0.65576132  0.14663579  0.04285747    -0.18500
C430        C  0.65171065  0.16359567  0.01865551    -0.08400
C431        C  0.68083231  0.13452920  0.08980623    -0.18700
C432        C  0.66129599  0.11875680  0.10143758    -0.23500
C433        C  0.66566423  0.09999073  0.12677114     0.26900
C434        C  0.64269421  0.09012844  0.14159586    -0.20300
C435        C  0.64566182  0.07152277  0.16469677    -0.09900
C436        C  0.67173881  0.06223666  0.17346395    -0.10500
C437        C  0.69475934  0.07207882  0.15862921    -0.03400
C438        C  0.69179222  0.09063312  0.13548989    -0.18500
H439        H  0.70354818  0.20748936  0.03105046     0.10600
H440        H  0.70962952  0.17855505  0.07381487     0.10600
H441        H  0.64309938  0.12897204  0.04484722     0.10300
H442        H  0.63561886  0.15870743  0.00331467     0.11400
H443        H  0.70075232  0.13535462  0.10021287     0.11500
H444        H  0.64072027  0.12001891  0.09254577     0.13400
H445        H  0.62230901  0.09677370  0.13519669     0.09900
H446        H  0.62750191  0.06432105  0.17558199     0.12000
H447        H  0.71515114  0.06513917  0.16460783     0.08600
H448        H  0.71000165  0.09697749  0.12416003     0.11400
C449        C  0.26713383  0.65073558  0.50072457    -0.03200
C450        C  0.26124127  0.67854667  0.50521928    -0.05800
C451        C  0.28206646  0.69738336  0.50727696    -0.20900
C452        C  0.30941209  0.68938952  0.50343282     0.24800
C453        C  0.31550509  0.66210597  0.49695199    -0.18500
C454        C  0.29463240  0.64308233  0.49530729    -0.08400
C455        C  0.33084981  0.71002527  0.50723921    -0.18700
C456        C  0.35556100  0.70867438  0.49433489    -0.23500
C457        C  0.37547569  0.73089143  0.49705295     0.26900
C458        C  0.39247646  0.73687879  0.47332082    -0.20300
C459        C  0.40966150  0.75919069  0.47436618    -0.09900
C460        C  0.41003674  0.77647423  0.49903649    -0.10500
C461        C  0.39494927  0.76850173  0.52393853    -0.03400
C462        C  0.37762021  0.74629025  0.52278151    -0.18500
H463        H  0.24032849  0.68551781  0.50832353     0.10600
H464        H  0.27675315  0.71834721  0.51192498     0.10600
H465        H  0.33639609  0.65520495  0.49377730     0.10300
H466        H  0.30036624  0.62251408  0.48970171     0.11400
H467        H  0.32531091  0.72799488  0.51975667     0.11500
H468        H  0.36037958  0.69224274  0.47933648     0.13400
H469        H  0.39177732  0.72483228  0.45352155     0.09900
H470        H  0.42192932  0.76374289  0.45527258     0.12000
H471        H  0.39630215  0.77915007  0.54451581     0.08600
H472        H  0.36595103  0.74114593  0.54211868     0.11400
C473        C  0.64845396  0.80354853  0.48525548    -0.03200
C474        C  0.63118206  0.81661156  0.46435200    -0.05800
C475        C  0.60337493  0.81173617  0.46303038    -0.20900
C476        C  0.59094711  0.79433044  0.48299266     0.24800
C477        C  0.60883785  0.78304600  0.00706523    -0.18500
C478        C  0.63724766  0.78723537  0.00735426    -0.08400
C479        C  0.56061086  0.79267574  0.48119094    -0.18700
C480        C  0.54621757  0.77593642  0.99840873    -0.23500
C481        C  0.51579075  0.77751247  0.99594790     0.26900
C482        C  0.49945684  0.76915606  0.01943181    -0.20300
C483        C  0.47120271  0.77449871  0.01916080    -0.09900
C484        C  0.45756960  0.79117353  0.49461123    -0.10500
C485        C  0.47319172  0.79506677  0.46896807    -0.03400
C486        C  0.50103174  0.78835449  0.46842676    -0.18500
H487        H  0.63837465  0.83197513  0.44947729     0.10600
H488        H  0.59127381  0.82253647  0.44664986     0.10600
H489        H  0.59988014  0.77136032  0.02460268     0.10300
H490        H  0.64930835  0.77868152  0.02517947     0.11400
H491        H  0.55075537  0.80796024  0.46740359     0.11500
H492        H  0.55541982  0.76093613  0.01302607     0.13400
H493        H  0.50871081  0.75976644  0.03863457     0.09900
H494        H  0.45930636  0.76901430  0.03823330     0.12000
H495        H  0.46428984  0.80364830  0.44923258     0.08600
H496        H  0.51231009  0.79240488  0.44853419     0.11400
C497        C  0.39067198  0.21672499  0.49731319    -0.03200
C498        C  0.36883665  0.21883175  0.47703791    -0.05800
C499        C  0.35186924  0.24181665  0.47600139    -0.20900
C500        C  0.35512844  0.26307256  0.49590742     0.24800
C501        C  0.37598236  0.26089280  0.51706469    -0.18500
C502        C  0.39333812  0.23795887  0.51784993    -0.08400
C503        C  0.33588359  0.28665201  0.49360310    -0.18700
C504        C  0.32940283  0.30369220  0.51572056    -0.23500
C505        C  0.30639751  0.32383555  0.51329510     0.26900
C506        C  0.30565007  0.34689367  0.53126876    -0.20300
C507        C  0.28334979  0.36522182  0.53012557    -0.09900
C508        C  0.26135349  0.36130145  0.51054438    -0.10500
C509        C  0.26191107  0.33723142  0.49372605    -0.03400
C510        C  0.28397733  0.31909540  0.49489604    -0.18500
H511        H  0.36401513  0.20262261  0.46217337     0.10600
H512        H  0.33554873  0.24265873  0.45989055     0.10600
H513        H  0.37921619  0.27687877  0.53279263     0.10300
H514        H  0.40913960  0.23681094  0.53450039     0.11400
H515        H  0.32529906  0.28898235  0.47277459     0.11500
H516        H  0.34026470  0.30228994  0.53645293     0.13400
H517        H  0.32220718  0.35057599  0.54646893     0.09900
H518        H  0.28307012  0.38238200  0.54486760     0.12000
H519        H  0.24474100  0.33123031  0.48047714     0.08600
H520        H  0.28261867  0.30065766  0.48225342     0.11400
C521        C  0.62912762  0.21426839  0.48932252    -0.03200
C522        C  0.61731557  0.22712477  0.46444895    -0.05800
C523        C  0.58920913  0.23323115  0.46348212    -0.20900
C524        C  0.57483884  0.22883926  0.98485200     0.24800
C525        C  0.58702976  0.22035933  0.01131452    -0.18500
C526        C  0.61488507  0.21414877  0.01265211    -0.08400
C527        C  0.54455545  0.22979389  0.98170119    -0.18700
C528        C  0.52945358  0.21059495  0.99466329    -0.23500
C529        C  0.49953817  0.20746731  0.99144450     0.26900
C530        C  0.48927886  0.18144199  0.99534787    -0.20300
C531        C  0.46131420  0.17721885  0.99590828    -0.09900
C532        C  0.44043294  0.19748664  0.49689000    -0.10500
C533        C  0.45101307  0.22339232  0.49061831    -0.03400
C534        C  0.47937574  0.22745024  0.48996514    -0.18500
H535        H  0.62943915  0.23033895  0.44492642     0.10600
H536        H  0.58015974  0.24066619  0.44322299     0.10600
H537        H  0.57482401  0.21767173  0.03087696     0.10300
H538        H  0.62307536  0.20753279  0.03357465     0.11400
H539        H  0.53268708  0.24319493  0.47053994     0.11500
H540        H  0.53998265  0.19470266  0.00710412     0.13400
H541        H  0.50302737  0.16421309  0.99857058     0.09900
H542        H  0.45433909  0.15676111  0.99958255     0.12000
H543        H  0.43770713  0.24063887  0.48625961     0.08600
H544        H  0.48683166  0.24771009  0.48629602     0.11400
C545        C  0.41928441  0.82149713  0.47234578    -0.03200
C546        C  0.39568012  0.81788231  0.45488154    -0.05800
C547        C  0.38969561  0.83523125  0.43125107    -0.20900
C548        C  0.40667911  0.85699579  0.42456987     0.24800
C549        C  0.42888037  0.86211369  0.44323951    -0.18500
C550        C  0.43482360  0.84486736  0.46690075    -0.08400
C551        C  0.40013435  0.87447658  0.39865812    -0.18700
C552        C  0.41921034  0.88873428  0.38420799    -0.23500
C553        C  0.41350752  0.90657859  0.35834478     0.26900
C554        C  0.43564617  0.91479154  0.34108166    -0.20300
C555        C  0.43173728  0.93272841  0.31755680    -0.09900
C556        C  0.40552015  0.94302177  0.31069544    -0.10500
C557        C  0.38323176  0.93457143  0.32768660    -0.03400
C558        C  0.38715645  0.91664512  0.35132626    -0.18500
H559        H  0.38143471  0.80190959  0.45931610     0.10600
H560        H  0.37179643  0.83145531  0.41794305     0.10600
H561        H  0.44160627  0.87956612  0.43988631     0.10300
H562        H  0.45222978  0.84934594  0.48066284     0.11400
H563        H  0.37928711  0.87436359  0.39053365     0.11500
H564        H  0.44042403  0.88667391  0.39101462     0.13400
H565        H  0.45617059  0.90748455  0.34598409     0.09900
H566        H  0.44936929  0.93875619  0.30493320     0.12000
H567        H  0.36279261  0.94227955  0.32313189     0.08600
H568        H  0.36958970  0.91143543  0.36440184     0.11400
C569        C  0.42558422  0.81838238  0.02694529    -0.03200
C570        C  0.44825041  0.82771714  0.04311297    -0.05800
C571        C  0.44483501  0.84457626  0.06729620    -0.20900
C572        C  0.41884727  0.85377302  0.07589269     0.24800
C573        C  0.39611123  0.84602284  0.05911901    -0.18500
C574        C  0.39953813  0.82892538  0.03480438    -0.08400
C575        C  0.41729635  0.87239042  0.10153681    -0.18700
C576        C  0.39422000  0.88311622  0.11317752    -0.23500
C577        C  0.39470345  0.90305995  0.13769499     0.26900
C578        C  0.37155664  0.90646764  0.15562020    -0.20300
C579        C  0.37133277  0.92550793  0.17841011    -0.09900
C580        C  0.39433158  0.94149074  0.18371033    -0.10500
C581        C  0.41734642  0.93821932  0.16563086    -0.03400
C582        C  0.41746450  0.91951002  0.14277743    -0.18500
H583        H  0.46905719  0.82309508  0.03684774     0.10600
H584        H  0.46289009  0.85095282  0.07903768     0.10600
H585        H  0.37571779  0.85326207  0.06424319     0.10300
H586        H  0.38169740  0.82372638  0.02204001     0.11400
H587        H  0.43671025  0.87734754  0.11152692     0.11500
H588        H  0.37440957  0.87705962  0.10508648     0.13400
H589        H  0.35362576  0.89432956  0.15201160     0.09900
H590        H  0.35323392  0.92765981  0.19190028     0.12000
H591        H  0.43520380  0.95057506  0.16873220     0.08600
H592        H  0.43527008  0.91860826  0.12878868     0.11400
C593        C  0.39806763  0.05790036  0.30709840    -0.03200
C594        C  0.42048726  0.07531485  0.30804485    -0.05800
C595        C  0.42207458  0.09537304  0.32951587    -0.20900
C596        C  0.40161394  0.09808697  0.35086444     0.24800
C597        C  0.37881996  0.08107474  0.34952054    -0.18500
C598        C  0.37705511  0.06122546  0.32778220    -0.08400
C599        C  0.40473158  0.11881447  0.37414246    -0.18700
C600        C  0.39424026  0.11583298  0.40123641    -0.23500
C601        C  0.39855656  0.13523886  0.42561464     0.26900
C602        C  0.39555452  0.12591937  0.45447079    -0.20300
C603        C  0.39908063  0.14327566  0.47824912    -0.09900
C604        C  0.40468605  0.17103503  0.47393576    -0.10500
C605        C  0.40871747  0.17992918  0.44473252    -0.03400
C606        C  0.40529094  0.16249460  0.42094305    -0.18500
H607        H  0.43682903  0.07344600  0.29214269     0.10600
H608        H  0.43965749  0.10842594  0.32984420     0.10600
H609        H  0.36222416  0.08315161  0.36504950     0.10300
H610        H  0.35946949  0.04818964  0.32745492     0.11400
H611        H  0.41783228  0.13580614  0.36940857     0.11500
H612        H  0.38338714  0.09742861  0.40650745     0.13400
H613        H  0.39097741  0.10484645  0.45871568     0.09900
H614        H  0.39819913  0.13428453  0.49982052     0.12000
H615        H  0.41414489  0.20076073  0.44037470     0.08600
H616        H  0.40756225  0.17063102  0.39903548     0.11400
C617        C  0.40613515  0.17984078  0.02780266    -0.03200
C618        C  0.42576224  0.18017919  0.05063443    -0.05800
C619        C  0.42157493  0.16627922  0.07687273    -0.20900
C620        C  0.39746738  0.15208231  0.08170640     0.24800
C621        C  0.37640658  0.15425008  0.06070632    -0.18500
C622        C  0.38048611  0.16858037  0.03444621    -0.08400
C623        C  0.39590715  0.13499598  0.10862674    -0.18700
C624        C  0.37902277  0.11391075  0.11205303    -0.23500
C625        C  0.38172670  0.09458864  0.13712275     0.26900
C626        C  0.35864008  0.08095297  0.14736448    -0.20300
C627        C  0.36098914  0.06185857  0.17016169    -0.09900
C628        C  0.38662725  0.05565028  0.18276995    -0.10500
C629        C  0.40973456  0.06915251  0.17228561    -0.03400
C630        C  0.40735028  0.08832969  0.14975996    -0.18500
H631        H  0.44471882  0.19091699  0.04850839     0.10600
H632        H  0.43772772  0.16598799  0.09318365     0.10600
H633        H  0.35690615  0.14480326  0.06426053     0.10300
H634        H  0.36409844  0.16952575  0.01844509     0.11400
H635        H  0.41095129  0.13878881  0.12560951     0.11500
H636        H  0.36334064  0.11000458  0.09583792     0.13400
H637        H  0.33874310  0.08512395  0.13772187     0.09900
H638        H  0.34281696  0.05168284  0.17760190     0.12000
H639        H  0.42982134  0.06475249  0.18133242     0.08600
H640        H  0.42578899  0.09761731  0.14175935     0.11400
O641        O  0.41025320  0.02554166  0.71467045    -0.74400
O642        O  0.41975846  0.97298521  0.77599050    -0.74500
O643        O  0.41413727  0.97094486  0.71684583    -0.74500
O644        O  0.41597126  0.02775954  0.77325297    -0.74600
O645        O  0.37077882  0.02564060  0.77859440    -0.74500
O646        O  0.36895020  0.96823380  0.72155773    -0.74500
O647        O  0.37460619  0.97052896  0.78117864    -0.74500
O648        O  0.36501112  0.02326194  0.71929566    -0.74500
Ni649      Ni  0.41656991  0.99930420  0.74504847     1.25400
Ni650      Ni  0.36817560  0.99678944  0.75037297     1.25400
C651        C  0.38614584  0.03321157  0.70690121     0.87700
C652        C  0.39886817  0.96320538  0.78895936     0.87700
C653        C  0.39138427  0.96050689  0.70937083     0.87700
C654        C  0.39374406  0.03638383  0.78497739     0.87900
C655        C  0.41157544  0.19246327  0.99702047    -0.02500
C656        C  0.42891418  0.80030475  0.99914192    -0.02500
O657        O  0.65912765  0.97645254  0.71437308    -0.74400
O658        O  0.65912012  0.03303541  0.77055916    -0.74500
O659        O  0.65426181  0.03087449  0.71163326    -0.74500
O660        O  0.66460319  0.97848592  0.77327344    -0.74600
O661        O  0.70977304  0.98214142  0.76864247    -0.74500
O662        O  0.69945026  0.03405672  0.70716794    -0.74500
O663        O  0.70431512  0.03668577  0.76652445    -0.74500
O664        O  0.70427163  0.97929022  0.70923359    -0.74500
Ni665      Ni  0.65771839  0.00457600  0.74264646     1.25400
Ni666      Ni  0.70610575  0.00812806  0.73771699     1.25400
C667        C  0.68138894  0.96870837  0.70211863     0.87700
C668        C  0.68145996  0.04426960  0.77791685     0.87700
C669        C  0.67523011  0.04100128  0.69911182     0.87700
C670        C  0.68898534  0.97199862  0.78133632     0.87900
C671        C  0.66146734  0.20498882  0.98694091    -0.02500
C672        C  0.68079203  0.81042715  0.98798441    -0.02500
O673        O  0.06472556  0.37777313  0.78629565    -0.74400
O674        O  0.01377877  0.37256376  0.72320339    -0.74500
O675        O  0.01008762  0.37722306  0.78227921    -0.74500
O676        O  0.06886445  0.37262109  0.72708968    -0.74600
O677        O  0.06925841  0.32756748  0.73102671    -0.74500
O678        O  0.01126086  0.33224567  0.78723510    -0.74500
O679        O  0.01377927  0.32757138  0.72770043    -0.74500
O680        O  0.06646673  0.33268652  0.79039918    -0.74500
Ni681      Ni  0.03936822  0.37659257  0.75448037     1.25400
Ni682      Ni  0.04022703  0.32837154  0.75920020     1.25400
C683        C  0.07351201  0.35624888  0.79921350     0.87700
C684        C  0.00518595  0.34941751  0.71501118     0.87700
C685        C  0.00147824  0.35553656  0.79449273     0.87700
C686        C  0.07860403  0.34932667  0.71969366     0.87900
C687        C  0.23446926  0.37871690  0.00958682    -0.02500
C688        C  0.84434323  0.37468531  0.00720622    -0.02500
O689        O  0.02416552  0.60854732  0.78730094    -0.74400
O690        O  0.07299414  0.60853770  0.72273432    -0.74500
O691        O  0.07883946  0.61163113  0.78162865    -0.74500
O692        O  0.01812308  0.60635872  0.72815880    -0.74600
O693        O  0.01475399  0.65151314  0.72698205    -0.74500
O694        O  0.07613414  0.65673646  0.77819364    -0.74500
O695        O  0.06989671  0.65357243  0.71936996    -0.74500
O696        O  0.02100863  0.65369843  0.78589513    -0.74500
Ni697      Ni  0.04861779  0.60719135  0.75501333     1.25400
Ni698      Ni  0.04531331  0.65551613  0.75251706     1.25400
C699        C  0.01473193  0.63087901  0.79757654     0.87700
C700        C  0.07967584  0.63074201  0.71034014     0.87700
C701        C  0.08756755  0.63518409  0.78845264     0.87700
C702        C  0.00633201  0.62826965  0.71900115     0.87900
C703        C  0.24443872  0.62771957  0.99820060    -0.02500
C704        C  0.85226997  0.62022350  0.00727297    -0.02500
C705        C  0.86788055  0.62104697  0.97759692    -0.03200
C706        C  0.85926049  0.63679294  0.95315347    -0.05800
C707        C  0.87547058  0.63855810  0.92798918    -0.20900
C708        C  0.90032769  0.62412913  0.92598869     0.24800
C709        C  0.90756252  0.60613814  0.94886702    -0.18500
C710        C  0.89148388  0.60449092  0.97405326    -0.08400
C711        C  0.91783860  0.62820523  0.89965501    -0.18700
C712        C  0.94449923  0.62101095  0.89868858    -0.23500
C713        C  0.96180849  0.62445054  0.87234980     0.26900
C714        C  0.98240262  0.60502685  0.86708703    -0.20300
C715        C  0.99944537  0.60735039  0.84279378    -0.09900
C716        C  0.99677029  0.62957390  0.82354666    -0.10500
C717        C  0.97660462  0.64951054  0.82910936    -0.03400
C718        C  0.95904014  0.64685518  0.85323682    -0.18500
H719        H  0.84011016  0.64799118  0.95305977     0.10600
H720        H  0.86871996  0.65164474  0.91014982     0.10600
H721        H  0.92557955  0.59322038  0.94768120     0.10300
H722        H  0.89810884  0.59092693  0.99151770     0.11400
H723        H  0.90852786  0.63789435  0.88056571     0.11500
H724        H  0.95419250  0.61122389  0.91741758     0.13400
H725        H  0.98508216  0.58775654  0.88165172     0.09900
H726        H  0.01495031  0.59177194  0.83919369     0.12000
H727        H  0.97415082  0.66682033  0.81458482     0.08600
H728        H  0.94370582  0.66249441  0.85718841     0.11400
C729        C  0.86965607  0.62700211  0.53213172    -0.03200
C730        C  0.89708929  0.63504637  0.52900342    -0.05800
C731        C  0.91440244  0.63624600  0.55328862    -0.20900
C732        C  0.90463757  0.63087966  0.58152136     0.24800
C733        C  0.87653610  0.62660921  0.58535598    -0.18500
C734        C  0.85916692  0.62534745  0.56097163    -0.08400
C735        C  0.92477710  0.62798615  0.60576769    -0.18700
C736        C  0.91869853  0.63121513  0.63428217    -0.23500
C737        C  0.94015813  0.62882066  0.65712107     0.26900
C738        C  0.94128318  0.64843075  0.67917719    -0.20300
C739        C  0.96264393  0.64791128  0.69954971    -0.09900
C740        C  0.98277515  0.62723720  0.69880020    -0.10500
C741        C  0.98088909  0.60675803  0.67763981    -0.03400
C742        C  0.95988074  0.60769789  0.65672275    -0.18500
H743        H  0.90581064  0.63970643  0.50788558     0.10600
H744        H  0.93577256  0.64072579  0.54988397     0.10600
H745        H  0.86812764  0.62267411  0.60685219     0.10300
H746        H  0.83787663  0.62062131  0.56446538     0.11400
H747        H  0.94592465  0.62378795  0.59973595     0.11500
H748        H  0.89842226  0.63809410  0.64081414     0.13400
H749        H  0.92618864  0.66474996  0.67995351     0.09900
H750        H  0.96356127  0.66382887  0.71580854     0.12000
H751        H  0.99618097  0.59064007  0.67662290     0.08600
H752        H  0.95911683  0.59206419  0.64014007     0.11400
C753        C  0.11090533  0.63785240  0.80869295    -0.03200
C754        C  0.12915964  0.65936820  0.80539648    -0.05800
C755        C  0.15050029  0.66279869  0.82546655    -0.20900
C756        C  0.15330535  0.64535150  0.84966612     0.24800
C757        C  0.13529067  0.62358658  0.85269882    -0.18500
C758        C  0.11444173  0.61971486  0.83221084    -0.08400
C759        C  0.17509876  0.64982278  0.87164821    -0.18700
C760        C  0.16978039  0.64775438  0.90048250    -0.23500
C761        C  0.19062318  0.64856447  0.92415472     0.26900
C762        C  0.18152780  0.65267249  0.95289721    -0.20300
C763        C  0.19899041  0.64810159  0.97666400    -0.09900
C764        C  0.22588869  0.63791110  0.97245789    -0.10500
C765        C  0.23598380  0.63774656  0.94339591    -0.03400
C766        C  0.21843525  0.64236865  0.91947158    -0.18500
H767        H  0.12690226  0.67351202  0.78727006     0.10600
H768        H  0.16432656  0.67951787  0.82258886     0.10600
H769        H  0.13740769  0.60951643  0.87090247     0.10300
H770        H  0.10059441  0.60303311  0.83521935     0.11400
H771        H  0.19521138  0.65549955  0.86402289     0.11500
H772        H  0.14875764  0.64456290  0.90722205     0.13400
H773        H  0.16045073  0.65854962  0.95708396     0.09900
H774        H  0.19077465  0.65203326  0.99821774     0.12000
H775        H  0.25700500  0.63172802  0.93918248     0.08600
H776        H  0.22637999  0.63939347  0.89757341     0.11400
C777        C  0.09911443  0.62924249  0.68550790    -0.03200
C778        C  0.10680443  0.60368809  0.67435862    -0.05800
C779        C  0.12552881  0.60139153  0.65154023    -0.20900
C780        C  0.13734493  0.62447827  0.63935735     0.24800
C781        C  0.12960209  0.65022377  0.65018120    -0.18500
C782        C  0.11059064  0.65256158  0.67310186    -0.08400
C783        C  0.15651132  0.62051758  0.61451592    -0.18700
C784        C  0.17564751  0.63836573  0.60662020    -0.23500
C785        C  0.19402742  0.63394524  0.58106331     0.26900
C786        C  0.21880666  0.64770158  0.57979714    -0.20300
C787        C  0.23548883  0.64586921  0.55497676    -0.09900
C788        C  0.22724195  0.63104676  0.53005509    -0.10500
C789        C  0.20361563  0.61519556  0.53283240    -0.03400
C790        C  0.18688621  0.61717558  0.55748617    -0.18500
H791        H  0.09831320  0.58526275  0.68323747     0.10600
H792        H  0.13091029  0.58137380  0.64344281     0.10600
H793        H  0.13774625  0.66853727  0.64072965     0.10300
H794        H  0.10497922  0.67251674  0.68115666     0.11400
H795        H  0.15548311  0.60127141  0.60316603     0.11500
H796        H  0.17852816  0.65647480  0.61964658     0.13400
H797        H  0.22522436  0.66009658  0.59804415     0.09900
H798        H  0.25468084  0.65632011  0.55566539     0.12000
H799        H  0.19713936  0.60248199  0.51488253     0.08600
H800        H  0.16789228  0.60630863  0.55726707     0.11400
C801        C  0.84355785  0.59019721  0.01070062    -0.03200
C802        C  0.85169920  0.57145109  0.52973049    -0.05800
C803        C  0.84289682  0.54481132  0.53129931    -0.20900
C804        C  0.82460518  0.53476055  0.51062398     0.24800
C805        C  0.81836569  0.55149075  0.99158633    -0.18500
C806        C  0.82584686  0.57871870  0.98977302    -0.08400
C807        C  0.81739437  0.50572583  0.51286938    -0.18700
C808        C  0.81822731  0.48979015  0.99273531    -0.23500
C809        C  0.82009181  0.45982394  0.99466167     0.26900
C810        C  0.83230412  0.44558480  0.97154500    -0.20300
C811        C  0.83900808  0.41811467  0.97459908    -0.09900
C812        C  0.83408787  0.40419716  0.00123952    -0.10500
C813        C  0.81386502  0.41815528  0.52015306    -0.03400
C814        C  0.80693699  0.44567358  0.51692814    -0.18500
H815        H  0.86737487  0.57694774  0.54514568     0.10600
H816        H  0.85128227  0.53163020  0.54827672     0.10600
H817        H  0.80426659  0.54370843  0.97549543     0.10300
H818        H  0.81763084  0.59105918  0.97201593     0.11400
H819        H  0.82023210  0.49615198  0.53419483     0.11500
H820        H  0.81750092  0.49890932  0.97101949     0.13400
H821        H  0.83788638  0.45603382  0.95153156     0.09900
H822        H  0.84841803  0.40821228  0.95600386     0.12000
H823        H  0.80849833  0.40790067  0.54034175     0.08600
H824        H  0.79632115  0.45591068  0.53463337     0.11400
C825        C  0.25390606  0.59767278  0.99402564    -0.03200
C826        C  0.27046684  0.58501912  0.01578356    -0.05800
C827        C  0.27614224  0.55708550  0.01525187    -0.20900
C828        C  0.26519957  0.54083450  0.99317293     0.24800
C829        C  0.24992776  0.55329020  0.97062241    -0.18500
C830        C  0.24385949  0.58100728  0.97134711    -0.08400
C831        C  0.26778386  0.51080469  0.99540750    -0.18700
C832        C  0.24703122  0.49489717  0.98733752    -0.23500
C833        C  0.24581012  0.46554581  0.99386369     0.26900
C834        C  0.22030784  0.45496264  0.00067621    -0.20300
C835        C  0.21754777  0.42748134  0.00637607    -0.09900
C836        C  0.24017871  0.40929843  0.00516010    -0.10500
C837        C  0.26582985  0.41999934  0.99742363    -0.03400
C838        C  0.26866539  0.44793997  0.99228852    -0.18500
H839        H  0.27817165  0.59675531  0.03394630     0.10600
H840        H  0.28796885  0.54796664  0.03294709     0.10600
H841        H  0.24165599  0.54142686  0.95286456     0.10300
H842        H  0.22671756  0.59012552  0.45970517     0.11400
H843        H  0.28520336  0.50197981  0.00704473     0.11500
H844        H  0.22842151  0.50428881  0.97870841     0.13400
H845        H  0.20233702  0.46808855  0.00173359     0.09900
H846        H  0.19762354  0.42073166  0.51286250     0.12000
H847        H  0.28358854  0.40702113  0.99439534     0.08600
H848        H  0.28845954  0.45561013  0.98614223     0.11400
C849        C  0.85872523  0.37362310  0.53315907    -0.03200
C850        C  0.86729682  0.39680231  0.54857559    -0.05800
C851        C  0.88429107  0.39448209  0.57313670    -0.20900
C852        C  0.89422565  0.36914215  0.58282862     0.24800
C853        C  0.88672554  0.34593689  0.56708927    -0.18500
C854        C  0.86958264  0.34824016  0.54249360    -0.08400
C855        C  0.91270919  0.36849947  0.60895488    -0.18700
C856        C  0.92705235  0.34659307  0.61874030    -0.23500
C857        C  0.94676483  0.34771300  0.64377401     0.26900
C858        C  0.95435726  0.32364617  0.65858414    -0.20300
C859        C  0.97330052  0.32396236  0.68175356    -0.09900
C860        C  0.98515078  0.34840882  0.69051340    -0.10500
C861        C  0.97778620  0.37238077  0.67544367    -0.03400
C862        C  0.95904813  0.37205127  0.65232171    -0.18500
H863        H  0.86190134  0.41708717  0.54146619     0.10600
H864        H  0.89020551  0.41283674  0.58429711     0.10600
H865        H  0.89389539  0.32592917  0.57344624     0.10300
H866        H  0.86453800  0.32999345  0.53065452     0.11400
H867        H  0.91469503  0.38753754  0.62050532     0.11500
H868        H  0.92454682  0.32708594  0.60834305     0.13400
H869        H  0.94552897  0.30454053  0.65226504     0.09900
H870        H  0.97861382  0.30511241  0.69280295     0.12000
H871        H  0.98675517  0.39154503  0.68128822     0.08600
H872        H  0.95486750  0.39091397  0.64088988     0.11400
C873        C  0.86394693  0.36478082  0.98258144    -0.03200
C874        C  0.85925203  0.34181025  0.96491965    -0.05800
C875        C  0.87633110  0.33571290  0.94113775    -0.20900
C876        C  0.89882055  0.35192580  0.93473736     0.24800
C877        C  0.90530939  0.37296214  0.95406214    -0.18500
C878        C  0.88829078  0.37911387  0.97768073    -0.08400
C879        C  0.91527982  0.34642314  0.90797630    -0.18700
C880        C  0.92862586  0.36621535  0.89375173    -0.23500
C881        C  0.94552185  0.36223953  0.86697760     0.26900
C882        C  0.95388261  0.38538444  0.85162283    -0.20300
C883        C  0.97126528  0.38312490  0.82748741    -0.09900
C884        C  0.98084782  0.35759016  0.81814160    -0.10500
C885        C  0.97205516  0.33430244  0.83305008    -0.03400
C886        C  0.95462942  0.33656348  0.85727211    -0.18500
H887        H  0.84237239  0.32849949  0.96896570     0.10600
H888        H  0.87157078  0.31863567  0.92727221     0.10600
H889        H  0.92342967  0.38490001  0.95093730     0.10300
H890        H  0.89349127  0.39605988  0.99153025     0.11400
H891        H  0.91493520  0.32608154  0.89908413     0.11500
H892        H  0.92656804  0.38688063  0.90167985     0.13400
H893        H  0.94729096  0.40541848  0.85862709     0.09900
H894        H  0.97771410  0.40149082  0.81660366     0.12000
H895        H  0.97923476  0.31433250  0.82651547     0.08600
H896        H  0.94917871  0.31820569  0.86870375     0.11400
C897        C  0.09098879  0.35904358  0.82540176    -0.03200
C898        C  0.08629273  0.38081394  0.84463221    -0.05800
C899        C  0.10181449  0.38331528  0.87018958    -0.20900
C900        C  0.12284675  0.36456052  0.87664389     0.24800
C901        C  0.12770602  0.34280427  0.85729146    -0.18500
C902        C  0.11170316  0.33994678  0.83200329    -0.08400
C903        C  0.13876969  0.36786138  0.90410326    -0.18700
C904        C  0.16523876  0.36038505  0.90642389    -0.23500
C905        C  0.18171791  0.36501100  0.93321678     0.26900
C906        C  0.20953369  0.37030572  0.93009024    -0.20300
C907        C  0.22583610  0.37463141  0.95466157    -0.09900
C908        C  0.21519122  0.37258923  0.98339825    -0.10500
C909        C  0.18692600  0.36775522  0.98632727    -0.03400
C910        C  0.17047364  0.36386674  0.96155176    -0.18500
H911        H  0.07015856  0.39560405  0.84020837     0.10600
H912        H  0.09753052  0.40008741  0.88485598     0.10600
H913        H  0.14338467  0.32764580  0.86199210     0.10300
H914        H  0.11558183  0.32294029  0.81754805     0.11400
H915        H  0.12893860  0.37846899  0.92218318     0.11500
H916        H  0.17583298  0.35240596  0.88730749     0.13400
H917        H  0.21862655  0.37154403  0.90847913     0.09900
H918        H  0.24715715  0.37932869  0.95131911     0.12000
H919        H  0.17707444  0.36772223  0.00750007     0.08600
H920        H  0.14900726  0.35975456  0.96465012     0.11400
C921        C  0.22247182  0.37437664  0.54189733    -0.03200
C922        C  0.22218414  0.39380090  0.56460653    -0.05800
C923        C  0.20859163  0.38898909  0.59087431    -0.20900
C924        C  0.19539526  0.36444131  0.59587729     0.24800
C925        C  0.19794811  0.34381812  0.57475030    -0.18500
C926        C  0.21179549  0.34860225  0.54838950    -0.08400
C927        C  0.17839924  0.36230457  0.62279057    -0.18700
C928        C  0.16060805  0.34242763  0.62844547    -0.23500
C929        C  0.14073822  0.34446504  0.65297787     0.26900
C930        C  0.13158660  0.32082789  0.66676458    -0.20300
C931        C  0.11181382  0.32235297  0.68890986    -0.09900
C932        C  0.10054691  0.34757976  0.69738283    -0.10500
C933        C  0.10972182  0.37119539  0.68349832    -0.03400
C934        C  0.12947538  0.36966960  0.66150169    -0.18500
H935        H  0.23223588  0.41303209  0.56236584     0.10600
H936        H  0.20783657  0.40494710  0.60714025     0.10600
H937        H  0.18907301  0.32414522  0.57808465     0.10300
H938        H  0.21305341  0.33250837  0.53233535     0.11400
H939        H  0.17938711  0.37913277  0.63804050     0.11500
H940        H  0.15979770  0.32461441  0.61466168     0.13400
H941        H  0.13971440  0.30116600  0.66033705     0.09900
H942        H  0.10510430  0.30375364  0.69910523     0.12000
H943        H  0.10126002  0.39090660  0.68921729     0.08600
H944        H  0.13523843  0.38824221  0.65060030     0.11400
C945        C  0.70086004  0.78581436  0.98801683    -0.03200
C946        C  0.72916475  0.79117451  0.98868362    -0.05800
C947        C  0.74861218  0.77034375  0.98843234    -0.20900
C948        C  0.74061906  0.74333431  0.98788032     0.24800
C949        C  0.71263689  0.73742824  0.98647971    -0.18500
C950        C  0.69293055  0.75847187  0.98603688    -0.06800
C951        C  0.76238054  0.72218433  0.98795879    -0.18700
C952        C  0.76048130  0.69852417  0.00251522    -0.23500
C953        C  0.78389316  0.67900935  0.00516287     0.26900
C954        C  0.77882309  0.65169842  0.01125855    -0.20300
C955        C  0.80033968  0.63267204  0.01285444    -0.09900
C956        C  0.82762683  0.64040404  0.00767155    -0.10500
C957        C  0.83260099  0.66832939  0.00421057    -0.03400
C958        C  0.81116832  0.68728007  0.00277137    -0.18500
H959        H  0.73624628  0.81183868  0.98970913     0.10600
H960        H  0.77007896  0.77538094  0.98918551     0.10600
H961        H  0.70603204  0.71664079  0.98501774     0.10300
H962        H  0.67175815  0.75303742  0.98383457     0.11400
H963        H  0.78135524  0.72738367  0.97721368     0.11500
H964        H  0.74131725  0.69335712  0.01297719     0.13400
H965        H  0.75807743  0.64498170  0.01452612     0.09900
H966        H  0.79520305  0.61207683  0.01832634     0.12000
H967        H  0.85331787  0.67539909  0.00176183     0.08600
H968        H  0.81624655  0.70838299  0.00004286     0.11400
C969        C  0.67914846  0.23076392  0.98539420    -0.03200
C970        C  0.69145914  0.23562517  0.46116741    -0.05800
C971        C  0.70862220  0.25791951  0.46102135    -0.20900
C972        C  0.71161485  0.27392951  0.48608716     0.24800
C973        C  0.69543098  0.26836608  0.51077507    -0.18500
C974        C  0.67802607  0.24612933  0.51084315    -0.08400
C975        C  0.73186645  0.29605059  0.48531186    -0.18700
C976        C  0.74420081  0.30586973  0.50942540    -0.23500
C977        C  0.76737241  0.32511206  0.50839563     0.26900
C978        C  0.78363779  0.32803320  0.53352232    -0.20300
C979        C  0.80672462  0.34436425  0.53310877    -0.09900
C980        C  0.81785066  0.35788839  0.00881270    -0.10500
C981        C  0.79704252  0.35639988  0.48272014    -0.03400
C982        C  0.77384557  0.34028630  0.48323044    -0.18500
H983        H  0.69346171  0.22617867  0.94027518     0.10600
H984        H  0.72004012  0.26237191  0.44128246     0.10600
H985        H  0.69605413  0.28109887  0.53002068     0.10300
H986        H  0.66594711  0.24224152  0.53024718     0.11400
H987        H  0.73865292  0.30237212  0.46376776     0.11500
H988        H  0.73878885  0.29778741  0.53078148     0.13400
H989        H  0.77864763  0.31735580  0.55357671     0.09900
H990        H  0.81791382  0.34633654  0.55339956     0.12000
H991        H  0.80160772  0.36745987  0.46279537     0.08600
H992        H  0.76120327  0.33994539  0.46377958     0.11400
C993        C  0.67983698  0.94792236  0.67885740    -0.03200
C994        C  0.65410886  0.93828491  0.67040110    -0.05800
C995        C  0.65162205  0.92058582  0.64688926    -0.20900
C996        C  0.67475093  0.91166738  0.63147603     0.24800
C997        C  0.70070601  0.92062284  0.64024555    -0.18500
C998        C  0.70320523  0.93867373  0.66376142    -0.08400
C999        C  0.67056764  0.89445997  0.60535464    -0.18700
C1000       C  0.68923312  0.87641454  0.59556803    -0.23500
C1001       C  0.68457320  0.85935451  0.56935336     0.26900
C1002       C  0.69816970  0.83427741  0.56743215    -0.20300
C1003       C  0.69573100  0.81835842  0.54237416    -0.09900
C1004       C  0.68054395  0.82764130  0.51767567    -0.10500
C1005       C  0.66519126  0.85194826  0.52086266    -0.03400
C1006       C  0.66760342  0.86786562  0.54601026    -0.18500
H1007       H  0.63563266  0.94494266  0.68148287     0.10600
H1008       H  0.63144328  0.91403000  0.64051346     0.10600
H1009       H  0.71892638  0.91453588  0.62838035     0.10300
H1010       H  0.72326897  0.94584606  0.66965881     0.11400
H1011       H  0.65068890  0.89580136  0.59476117     0.11500
H1012       H  0.70804759  0.87308731  0.60785745     0.13400
H1013       H  0.71073592  0.82690160  0.58547607     0.09900
H1014       H  0.70598527  0.79879440  0.54279039     0.12000
H1015       H  0.65221695  0.85927960  0.50315585     0.08600
H1016       H  0.65682593  0.88719179  0.54659477     0.11400
C1017       C  0.69341433  0.95305875  0.80602544    -0.03200
C1018       C  0.71749722  0.95435358  0.82275778    -0.05800
C1019       C  0.72155086  0.93716937  0.84682179    -0.20900
C1020       C  0.70196896  0.91791470  0.85414552     0.24800
C1021       C  0.67782963  0.91655025  0.83737850    -0.18500
C1022       C  0.67354770  0.93409618  0.81359086    -0.08400
C1023       C  0.70654146  0.90063090  0.88036248    -0.18700
C1024       C  0.69677485  0.87539015  0.88242636    -0.23500
C1025       C  0.69809289  0.85858119  0.90949473     0.26900
C1026       C  0.69163793  0.83110016  0.90747774    -0.20300
C1027       C  0.68803713  0.81555329  0.93275084    -0.09900
C1028       C  0.68968010  0.82735235  0.96088594    -0.10500
C1029       C  0.69960323  0.85402613  0.96264771    -0.03400
C1030       C  0.70315484  0.86960707  0.93734920    -0.18500
H1031       H  0.73297590  0.96906387  0.81760328     0.10600
H1032       H  0.74008127  0.93883398  0.85969695     0.10600
H1033       H  0.66193572  0.90247103  0.84304380     0.10300
H1034       H  0.65475069  0.93283000  0.80111207     0.11400
H1035       H  0.71882527  0.90888444  0.89789638     0.11500
H1036       H  0.68675636  0.86669344  0.86345622     0.13400
H1037       H  0.68822773  0.82187622  0.88628280     0.09900
H1038       H  0.68186888  0.79468449  0.93039358     0.12000
H1039       H  0.70411485  0.86346090  0.98336856     0.08600
H1040       H  0.70870254  0.89055403  0.94006681     0.11400
C1041       C  0.68016538  0.06617909  0.79992232    -0.03200
C1042       C  0.65492247  0.07907239  0.80564518    -0.05800
C1043       C  0.65266251  0.09886797  0.82720593    -0.20900
C1044       C  0.67541992  0.10603761  0.84397215     0.24800
C1045       C  0.70093818  0.09356357  0.83803616    -0.18500
C1046       C  0.70329438  0.07384619  0.81602148    -0.08400
C1047       C  0.67120088  0.12673209  0.86710273    -0.18700
C1048       C  0.68666615  0.12870401  0.89142759    -0.23500
C1049       C  0.67968501  0.14800278  0.91535569     0.26900
C1050       C  0.70040092  0.15740723  0.93372097    -0.20300
C1051       C  0.69429014  0.17559811  0.95632943    -0.09900
C1052       C  0.66730915  0.18549563  0.96088928    -0.10500
C1053       C  0.64641170  0.17438348  0.94347072    -0.03400
C1054       C  0.65252490  0.15613104  0.92101350    -0.18500
H1055       H  0.63675129  0.07381196  0.79345910     0.10600
H1056       H  0.63284148  0.10828630  0.83118052     0.10600
H1057       H  0.71906652  0.09909286  0.85007815     0.10300
H1058       H  0.72301012  0.06426884  0.81198203     0.11400
H1059       H  0.65349312  0.14010146  0.86450056     0.11500
H1060       H  0.70474600  0.11587038  0.89413785     0.13400
H1061       H  0.72140142  0.15076952  0.93048847     0.09900
H1062       H  0.71078998  0.18231696  0.97025127     0.12000
H1063       H  0.62506786  0.17869707  0.94761825     0.08600
H1064       H  0.63571108  0.14781200  0.90873051     0.11400
C1065       C  0.66518824  0.18442018  0.51514934    -0.03200
C1066       C  0.68808877  0.18747405  0.53368027    -0.05800
C1067       C  0.69242238  0.17010966  0.55767106    -0.20900
C1068       C  0.67440628  0.14895311  0.56358771     0.24800
C1069       C  0.65267655  0.14462039  0.54409576    -0.18500
C1070       C  0.64833162  0.16189546  0.52022911    -0.08400
C1071       C  0.67957860  0.13114629  0.58948180    -0.18700
C1072       C  0.66011277  0.11587008  0.60193730    -0.23500
C1073       C  0.66485595  0.09742245  0.62741377     0.26900
C1074       C  0.64204180  0.08698738  0.64201876    -0.20300
C1075       C  0.64533405  0.06888602  0.66547911    -0.09900
C1076       C  0.67158876  0.06073661  0.67482438    -0.10500
C1077       C  0.69445411  0.07115767  0.66026746    -0.03400
C1078       C  0.69117350  0.08917323  0.63674833    -0.18500
H1079       H  0.70311423  0.20281913  0.52963762     0.10600
H1080       H  0.70996638  0.17324941  0.57171182     0.10600
H1081       H  0.63916276  0.12767898  0.54674110     0.10300
H1082       H  0.63131379  0.15791788  0.50572854     0.11400
H1083       H  0.69985143  0.13163866  0.59905798     0.11500
H1084       H  0.63931523  0.11736643  0.59372781     0.13400
H1085       H  0.62153264  0.09278456  0.63517670     0.09900
H1086       H  0.62729323  0.06115234  0.67615182     0.12000
H1087       H  0.71498106  0.06510794  0.66677285     0.08600
H1088       H  0.70936181  0.09596492  0.62573894     0.11400
C1089       C  0.26858397  0.64768501  0.99886677    -0.03200
C1090       C  0.26278977  0.67549440  0.00337816    -0.05800
C1091       C  0.28364042  0.69430560  0.00541970    -0.20900
C1092       C  0.31103714  0.68630689  0.00192953     0.24800
C1093       C  0.31712546  0.65895512  0.99568009    -0.18500
C1094       C  0.29617203  0.63994563  0.99386818    -0.08400
C1095       C  0.33236888  0.70710701  0.00606681    -0.18700
C1096       C  0.35769104  0.70567493  0.99454565    -0.23500
C1097       C  0.37724703  0.72828169  0.99761270     0.26900
C1098       C  0.39521265  0.73393270  0.97460532    -0.20300
C1099       C  0.41202515  0.75655286  0.97581828    -0.09900
C1100       C  0.41133368  0.77437575  0.00006031    -0.10500
C1101       C  0.39518498  0.76684890  0.02435439    -0.03400
C1102       C  0.37806647  0.74443507  0.02292151    -0.18500
H1103       H  0.24188565  0.68254576  0.00632176     0.10600
H1104       H  0.27828559  0.71529168  0.00989159     0.10600
H1105       H  0.33803575  0.65200248  0.99278943     0.10300
H1106       H  0.30192401  0.61932329  0.98850494     0.11400
H1107       H  0.32623136  0.72537099  0.01775669     0.11500
H1108       H  0.36337598  0.68886932  0.98038508     0.13400
H1109       H  0.39553821  0.72138605  0.95515342     0.09900
H1110       H  0.42496884  0.76082302  0.95717102     0.12000
H1111       H  0.39549979  0.77799102  0.04466624     0.08600
H1112       H  0.36556222  0.73968831  0.04176612     0.11400
C1113       C  0.64998761  0.80303551  0.98544140    -0.03200
C1114       C  0.63271569  0.81505087  0.96386138    -0.05800
C1115       C  0.60475323  0.81075470  0.96351619    -0.20900
C1116       C  0.59233473  0.79497609  0.98504085     0.24800
C1117       C  0.60736884  0.78148414  0.50454520    -0.18500
C1118       C  0.63568140  0.78635790  0.50586285    -0.08400
C1119       C  0.56198069  0.79386542  0.98420444    -0.18700
C1120       C  0.54458338  0.77507459  0.49553674    -0.23500
C1121       C  0.51413847  0.77728706  0.49336929     0.26900
C1122       C  0.49793941  0.76952277  0.51719879    -0.20300
C1123       C  0.46988230  0.77582923  0.51753783    -0.09900
C1124       C  0.45886231  0.78956706  0.99602180    -0.10500
C1125       C  0.47477846  0.79401429  0.97072814    -0.03400
C1126       C  0.50279101  0.78819434  0.97076240    -0.18500
H1127       H  0.63999299  0.82919992  0.94769829     0.10600
H1128       H  0.59254416  0.82070470  0.94661862     0.10600
H1129       H  0.59842351  0.76849689  0.52096493     0.10300
H1130       H  0.64759678  0.77711913  0.52340216     0.11400
H1131       H  0.55197702  0.80933706  0.97077300     0.11500
H1132       H  0.55354872  0.76032146  0.51059232     0.13400
H1133       H  0.50721749  0.75987197  0.53623657     0.09900
H1134       H  0.45815073  0.77066360  0.53683411     0.12000
H1135       H  0.46598289  0.80246709  0.95087553     0.08600
H1136       H  0.51428064  0.79263013  0.95111134     0.11400
C1137       C  0.39221030  0.21771202  0.99505243    -0.03200
C1138       C  0.36972455  0.21905554  0.97551355    -0.05800
C1139       C  0.35233203  0.24169604  0.97449589    -0.20900
C1140       C  0.35576382  0.26339607  0.99375200     0.24800
C1141       C  0.37718546  0.26195703  0.01433322    -0.18500
C1142       C  0.39496921  0.23930444  0.01511401    -0.08400
C1143       C  0.33603635  0.28658253  0.99141234    -0.18700
C1144       C  0.32955265  0.30376198  0.01338028    -0.23500
C1145       C  0.30604459  0.32335804  0.01117878     0.26900
C1146       C  0.30506860  0.34647078  0.02904696    -0.20300
C1147       C  0.28239318  0.36432113  0.02819120    -0.09900
C1148       C  0.26026186  0.35991649  0.00892368    -0.10500
C1149       C  0.26099216  0.33577934  0.99226689    -0.03400
C1150       C  0.28344392  0.31806258  0.99318593    -0.18500
H1151       H  0.36470372  0.20248154  0.96120806     0.10600
H1152       H  0.33555560  0.24191511  0.95892277     0.10600
H1153       H  0.38050310  0.27829986  0.02960459     0.10300
H1154       H  0.41116729  0.23867350  0.03134075     0.11400
H1155       H  0.32503085  0.28838459  0.97078108     0.11500
H1156       H  0.34082435  0.30284813  0.03388788     0.13400
H1157       H  0.32177831  0.35059882  0.04390568     0.09900
H1158       H  0.28205288  0.38165106  0.04270021     0.12000
H1159       H  0.24377128  0.32956630  0.97920235     0.08600
H1160       H  0.28230907  0.29956217  0.98062363     0.11400
C1161       C  0.63143847  0.21576621  0.98736308    -0.03200
C1162       C  0.61986673  0.22852748  0.96229040    -0.05800
C1163       C  0.59172282  0.23444370  0.96083169    -0.20900
C1164       C  0.57268283  0.22770390  0.48779904     0.24800
C1165       C  0.58520793  0.21938257  0.51412603    -0.18500
C1166       C  0.61305877  0.21309343  0.51500509    -0.08400
C1167       C  0.54241297  0.22840990  0.48505505    -0.18700
C1168       C  0.52767476  0.20872427  0.49765136    -0.23500
C1169       C  0.49769942  0.20563728  0.49499926     0.26900
C1170       C  0.48729815  0.17973799  0.49954223    -0.20300
C1171       C  0.45928683  0.17565009  0.50002322    -0.09900
C1172       C  0.44233243  0.19903227  0.99358164    -0.10500
C1173       C  0.45273596  0.22508379  0.98761652    -0.03400
C1174       C  0.48111035  0.22928205  0.98683280    -0.18500
H1175       H  0.63228045  0.23194219  0.94302130     0.10600
H1176       H  0.58295782  0.24193640  0.94045582     0.10600
H1177       H  0.57323035  0.21676087  0.53386567     0.10300
H1178       H  0.62159699  0.20657394  0.53580852     0.11400
H1179       H  0.53509745  0.24426797  0.96662410     0.11500
H1180       H  0.53853098  0.19264771  0.50949680     0.13400
H1181       H  0.50095608  0.16250687  0.50316538     0.09900
H1182       H  0.45216410  0.15529647  0.50402474     0.12000
H1183       H  0.43930284  0.24233198  0.98375828     0.08600
H1184       H  0.48851826  0.24962226  0.98356102     0.11400
C1185       C  0.42046830  0.81945280  0.97326690    -0.03200
C1186       C  0.39731499  0.81532750  0.95527656    -0.05800
C1187       C  0.39100375  0.83295140  0.93195361    -0.20900
C1188       C  0.40717831  0.85552038  0.92603691     0.24800
C1189       C  0.42913360  0.86085639  0.94498514    -0.18500
C1190       C  0.43546971  0.84327800  0.96827092    -0.08400
C1191       C  0.39999183  0.87345476  0.90058225    -0.18700
C1192       C  0.41823243  0.88952376  0.88713344    -0.23500
C1193       C  0.41203255  0.90747341  0.86139892     0.26900
C1194       C  0.43409943  0.91836757  0.84592341    -0.20300
C1195       C  0.42973993  0.93605870  0.82228300    -0.09900
C1196       C  0.40310507  0.94352979  0.81345469    -0.10500
C1197       C  0.38088979  0.93258294  0.82877864    -0.03400
C1198       C  0.38526405  0.91479541  0.85252964    -0.18500
H1199       H  0.38359748  0.79878046  0.95910128     0.10600
H1200       H  0.37338897  0.82882496  0.91834628     0.10600
H1201       H  0.44132783  0.87876227  0.94225015     0.10300
H1202       H  0.45262824  0.84803096  0.98227199     0.11400
H1203       H  0.37940607  0.87216794  0.89191630     0.11500
H1204       H  0.43931383  0.88888369  0.89457826     0.13400
H1205       H  0.45492754  0.91326571  0.85223928     0.09900
H1206       H  0.44736636  0.94409873  0.81109386     0.12000
H1207       H  0.36010313  0.93803209  0.82267055     0.08600
H1208       H  0.36761457  0.90742020  0.86411384     0.11400
C1209       C  0.42446786  0.82011787  0.52597071    -0.03200
C1210       C  0.44702074  0.82897056  0.54258331    -0.05800
C1211       C  0.44339535  0.84516865  0.56730858    -0.20900
C1212       C  0.41730834  0.85410455  0.57601000     0.24800
C1213       C  0.39472395  0.84684648  0.55874778    -0.18500
C1214       C  0.39835727  0.83044649  0.53392317    -0.08400
C1215       C  0.41545240  0.87174531  0.60248162    -0.18700
C1216       C  0.39233142  0.88288564  0.61369064    -0.23500
C1217       C  0.39251541  0.90212306  0.63894724     0.26900
C1218       C  0.36847348  0.90670448  0.65522345    -0.20300
C1219       C  0.36790989  0.92539762  0.67839821    -0.09900
C1220       C  0.39145845  0.93987105  0.68574985    -0.10500
C1221       C  0.41539514  0.93531263  0.66939846    -0.03400
C1222       C  0.41588410  0.91697295  0.64621283    -0.18500
H1223       H  0.46783774  0.82428899  0.53638377     0.10600
H1224       H  0.46134565  0.85115506  0.57947716     0.10600
H1225       H  0.37425977  0.85378409  0.56399429     0.10300
H1226       H  0.38058461  0.82543249  0.52095584     0.11400
H1227       H  0.43469726  0.87563924  0.61336807     0.11500
H1228       H  0.37263208  0.87793409  0.60444181     0.13400
H1229       H  0.35005658  0.89585228  0.64993245     0.09900
H1230       H  0.34907432  0.92858656  0.69043790     0.12000
H1231       H  0.43378712  0.94644060  0.67404722     0.08600
H1232       H  0.43452513  0.91524842  0.63363891     0.11400
C1233       C  0.39498722  0.05905590  0.80606361    -0.03200
C1234       C  0.41838112  0.07519780  0.80731375    -0.05800
C1235       C  0.42039999  0.09584624  0.82802984    -0.20900
C1236       C  0.39935117  0.10045948  0.84829968     0.24800
C1237       C  0.37546525  0.08504136  0.84639006    -0.18500
C1238       C  0.37328562  0.06457079  0.82538198    -0.08400
C1239       C  0.40318893  0.12110772  0.87144102    -0.18700
C1240       C  0.39273569  0.11830688  0.89855579    -0.23500
C1241       C  0.39820799  0.13723110  0.92303892     0.26900
C1242       C  0.39590420  0.12763282  0.95187367    -0.20300
C1243       C  0.40039763  0.14468429  0.97572142    -0.09900
C1244       C  0.40630615  0.17237364  0.97146888    -0.10500
C1245       C  0.40974057  0.18147973  0.94224738    -0.03400
C1246       C  0.40535049  0.16436541  0.91841810    -0.18500
H1247       H  0.43527493  0.07174424  0.79238750     0.10600
H1248       H  0.43882724  0.10769878  0.82880993     0.10600
H1249       H  0.35848329  0.08872255  0.86111319     0.10300
H1250       H  0.35489042  0.05268787  0.82468899     0.11400
H1251       H  0.41705337  0.13751414  0.86678890     0.11500
H1252       H  0.38116982  0.10030686  0.90372254     0.13400
H1253       H  0.39104457  0.10660979  0.95601197     0.09900
H1254       H  0.39984379  0.13557181  0.99725014     0.12000
H1255       H  0.41526892  0.20229108  0.93792740     0.08600
H1256       H  0.40709943  0.17266708  0.89651677     0.11400
C1257       C  0.40327019  0.17869790  0.53016480    -0.03200
C1258       C  0.42214423  0.17942568  0.55368287    -0.05800
C1259       C  0.41718109  0.16578848  0.57990594    -0.20900
C1260       C  0.39310372  0.15133968  0.58387368     0.24800
C1261       C  0.37270966  0.15313181  0.56212458    -0.18500
C1262       C  0.37747489  0.16737085  0.53596839    -0.08400
C1263       C  0.39086636  0.13429224  0.61068521    -0.18700
C1264       C  0.37538640  0.11203519  0.61267804    -0.23500
C1265       C  0.37798794  0.09269587  0.63769415     0.26900
C1266       C  0.35530388  0.07769103  0.64657386    -0.20300
C1267       C  0.35767976  0.05865955  0.66942295    -0.09900
C1268       C  0.38299928  0.05385116  0.68333916    -0.10500
C1269       C  0.40573327  0.06868873  0.67417550    -0.03400
C1270       C  0.40328894  0.08784786  0.65165899    -0.18500
H1271       H  0.44108119  0.19028001  0.55209223     0.10600
H1272       H  0.43276359  0.16577797  0.59683855     0.10600
H1273       H  0.35322944  0.14345696  0.56507377     0.10300
H1274       H  0.36158779  0.16811768  0.51938761     0.11400
H1275       H  0.40453018  0.13896661  0.62871103     0.11500
H1276       H  0.36117821  0.10715622  0.59525502     0.13400
H1277       H  0.33570237  0.08077637  0.63586443     0.09900
H1278       H  0.33983335  0.04741107  0.67585701     0.12000
H1279       H  0.42556048  0.06541236  0.68432543     0.08600
H1280       H  0.42147038  0.09827200  0.64472130     0.11400
loop_ 
_geom_bond_atom_site_label_1 
_geom_bond_atom_site_label_2 
_geom_bond_distance 
_geom_bond_site_symmetry_2 
_ccdc_geom_bond_type 
O1           Ni9   1.914       .  S
O1           C11   1.281       .  A
O2           Ni9   1.918   1_565  S
O2           C12   1.282       .  A
O3           Ni9   1.911   1_565  S
O3           C13   1.281       .  A
O4           Ni9   1.911       .  S
O4           C14   1.280       .  A
O5          Ni10   1.924   1_545  S
O5           C14   1.283       .  A
O6          Ni10   1.925       .  S
O6           C13   1.283       .  A
O7          Ni10   1.923       .  S
O7           C12   1.283       .  A
O8          Ni10   1.926   1_545  S
O8           C11   1.283       .  A
Ni9         Ni10   2.386   1_545  S
C11         C628   1.484       .  S
C12         C556   1.485       .  S
C13         C580   1.482       .  S
C14         C593   1.479       .  S
C15         C497   1.552       .  S
C15         C532   1.552       .  S
C15         C604   1.557       .  S
C15        C1257   1.556       .  S
C16         C460   1.551       .  S
C16         C484   1.556       .  S
C16         C545   1.557       .  S
C16        C1209   1.558       .  S
O17         Ni25   1.894   1_565  S
O17          C27   1.277       .  A
O18         Ni25   1.897       .  S
O18          C28   1.278       .  A
O19         Ni25   1.926       .  S
O19          C29   1.284       .  A
O20         Ni25   1.926   1_565  S
O20          C30   1.284       .  A
O21         Ni26   1.910   1_565  S
O21          C30   1.280       .  A
O22         Ni26   1.914       .  S
O22          C29   1.281       .  A
O23         Ni26   1.934       .  S
O23          C28   1.285       .  A
O24         Ni26   1.934   1_565  S
O24          C27   1.285       .  A
Ni25        Ni26   2.386       .  S
C27         C353   1.480       .  S
C28         C401   1.479       .  S
C29         C436   1.484       .  S
C30         C377   1.481       .  S
C31         C329   1.549       .  S
C31         C412   1.553       .  S
C31         C521   1.552       .  S
C31        C1065   1.551       .  S
C32         C305   1.551       .  S
C32         C388   1.556       .  S
C32         C473   1.563       .  S
C32        C1004   1.554       .  S
O33         Ni41   1.905       .  S
O33          C43   1.279       .  A
O34         Ni41   1.908       .  S
O34          C44   1.280       .  A
O35         Ni41   1.917       .  S
O35          C45   1.282       .  A
O36         Ni41   1.920       .  S
O36          C46   1.283       .  A
O37         Ni42   1.922       .  S
O37          C46   1.282       .  A
O38         Ni42   1.922       .  S
O38          C45   1.282       .  A
O39         Ni42   1.928       .  S
O39          C44   1.284       .  A
O40         Ni42   1.927       .  S
O40          C43   1.283       .  A
Ni41        Ni42   2.386       .  S
C43         C257   1.476       .  S
C44         C220   1.483   1_455  S
C45         C244   1.484   1_455  S
C46         C292   1.484       .  S
C47         C196   1.553       .  S
C47         C268   1.553       .  S
C47         C508   1.554       .  S
C47         C921   1.552       .  S
C48         C172   1.557       .  S
C48         C233   1.554       .  S
C48         C340   1.552       .  S
C48         C849   1.558       .  S
O49         Ni57   1.905       .  S
O49          C59   1.279       .  A
O50         Ni57   1.905       .  S
O50          C60   1.279       .  A
O51         Ni57   1.929       .  S
O51          C61   1.284       .  A
O52         Ni57   1.930       .  S
O52          C62   1.284       .  A
O53         Ni58   1.904       .  S
O53          C62   1.278       .  A
O54         Ni58   1.905       .  S
O54          C61   1.278       .  A
O55         Ni58   1.936       .  S
O55          C60   1.286       .  A
O56         Ni58   1.935       .  S
O56          C59   1.285       .  A
Ni57        Ni58   2.388       .  S
C59          C76   1.481   1_455  S
C60         C137   1.484       .  S
C61         C113   1.476       .  S
C62         C100   1.471   1_455  S
C63         C124   1.556       .  S
C63         C185   1.558       .  S
C63         C449   1.549       .  S
C63         C788   1.555       .  S
C64          C65   1.557       .  S
C64         C161   1.559       .  S
C64         C316   1.553       .  S
C64         C729   1.556       .  S
C65          C66   1.415       .  A
C65          C70   1.413       .  A
C66          C67   1.400       .  A
C66          H79   1.079       .  S
C67          C68   1.403       .  A
C67          H80   1.083       .  S
C68          C69   1.407       .  A
C68          C71   1.494       .  S
C69          C70   1.396       .  A
C69          H81   1.079       .  S
C70          H82   1.083       .  S
C71          C72   1.348       .  D
C71          H83   1.086       .  S
C72          C73   1.484       .  S
C72          H84   1.083       .  S
C73          C74   1.401       .  A
C73          C78   1.409       .  A
C74          C75   1.394       .  A
C74          H85   1.084       .  S
C75          C76   1.405       .  A
C75          H86   1.083   1_655  S
C76          C77   1.406       .  A
C77          C78   1.405       .  A
C77          H87   1.083       .  S
C78          H88   1.082       .  S
C89         C704   1.554       .  S
C89          C90   1.413       .  A
C89          C94   1.413       .  A
C90          C91   1.395       .  A
C90         H103   1.079       .  S
C91          C92   1.401       .  A
C91         H104   1.084       .  S
C92          C93   1.406       .  A
C92          C95   1.486       .  S
C93          C94   1.398       .  A
C93         H105   1.080       .  S
C94         H106   1.083       .  S
C95          C96   1.345       .  D
C95         H107   1.087       .  S
C96          C97   1.480       .  S
C96         H108   1.084       .  S
C97          C98   1.400       .  A
C97         C102   1.408       .  A
C98          C99   1.396       .  A
C98         H109   1.083       .  S
C99         C100   1.405       .  A
C99         H110   1.083       .  S
C100        C101   1.402       .  A
C101        C102   1.400       .  A
C101        H111   1.083   1_655  S
C102        H112   1.083       .  S
C113        C114   1.407       .  A
C113        C118   1.403       .  A
C114        C115   1.398       .  A
C114        H127   1.083       .  S
C115        C116   1.400       .  A
C115        H128   1.083       .  S
C116        C117   1.407       .  A
C116        C119   1.479       .  S
C117        C118   1.399       .  A
C117        H129   1.083       .  S
C118        H130   1.083       .  S
C119        C120   1.343       .  D
C119        H131   1.085       .  S
C120        C121   1.483       .  S
C120        H132   1.088       .  S
C121        C122   1.399       .  A
C121        C126   1.405       .  A
C122        C123   1.395       .  A
C122        H133   1.084       .  S
C123        C124   1.414       .  A
C123        H134   1.079       .  S
C124        C125   1.414       .  A
C125        C126   1.400       .  A
C125        H135   1.083       .  S
C126        H136   1.082       .  S
C137        C138   1.406       .  A
C137        C142   1.406       .  A
C138        C139   1.395       .  A
C138        H151   1.083       .  S
C139        C140   1.402       .  A
C139        H152   1.084       .  S
C140        C141   1.411       .  A
C140        C143   1.490       .  S
C141        C142   1.405       .  A
C141        H153   1.081       .  S
C142        H154   1.083       .  S
C143        C144   1.348       .  D
C143        H155   1.083       .  S
C144        C145   1.495       .  S
C144        H156   1.085       .  S
C145        C146   1.403       .  A
C145        C150   1.408       .  A
C146        C147   1.400       .  A
C146        H157   1.083       .  S
C147        C148   1.414       .  A
C147        H158   1.079       .  S
C148        C703   1.559   1_554  S
C148        C149   1.413       .  A
C149        C150   1.397       .  A
C149        H159   1.083       .  S
C150        H160   1.080       .  S
C161        C166   1.415       .  A
C161        C802   1.416       .  A
C162        C163   1.392       .  A
C162        C801   1.416       .  A
C162        H175   1.078       .  S
C163        C164   1.397       .  A
C163        H176   1.084       .  S
C164        C805   1.405   1_554  A
C164        C167   1.482       .  S
C165        C166   1.403       .  A
C165        C804   1.405       .  A
C165        H177   1.082       .  S
C166        H178   1.083       .  S
C167        C808   1.344   1_554  D
C167        H179   1.087       .  S
C168        C169   1.485       .  S
C168        C807   1.345       .  D
C168        H180   1.086       .  S
C169        C170   1.398       .  A
C169        C814   1.406       .  A
C170        C171   1.396       .  A
C170        H181   1.084       .  S
C171        C172   1.416       .  A
C171        H182   1.080       .  S
C172        C813   1.413       .  A
C173        C174   1.398       .  A
C173        C812   1.413       .  A
C173        H183   1.083       .  S
C174        C809   1.405   1_554  A
C174        H184   1.083       .  S
C185        C186   1.415       .  A
C185        C190   1.416       .  A
C186        C187   1.403       .  A
C186        H199   1.083       .  S
C187        C188   1.401       .  A
C187        H200   1.083       .  S
C188        C189   1.403       .  A
C188        C191   1.490       .  S
C189        C190   1.394       .  A
C189        H201   1.083       .  S
C190        H842   1.078       .  S
C191        C192   1.347       .  D
C191        H203   1.086       .  S
C192        C193   1.483       .  S
C192        H204   1.087       .  S
C193        C194   1.396       .  A
C193        C198   1.408       .  A
C194        C195   1.387       .  A
C194        H205   1.084       .  S
C195        C196   1.414       .  A
C195        H846   1.083       .  S
C196        C197   1.414       .  A
C197        C198   1.409       .  A
C197        H207   1.079       .  S
C198        H208   1.082       .  S
H202        C830   1.077       .  S
H206        C835   1.083       .  S
C209        C688   1.558       .  S
C209        C210   1.415       .  A
C209        C214   1.414       .  A
C210        C211   1.394       .  A
C210        H223   1.078       .  S
C211        C212   1.400       .  A
C211        H224   1.084       .  S
C212        C213   1.407       .  A
C212        C215   1.491       .  S
C213        C214   1.402       .  A
C213        H225   1.080       .  S
C214        H226   1.083       .  S
C215        C216   1.350       .  D
C215        H227   1.085       .  S
C216        C217   1.491       .  S
C216        H228   1.083       .  S
C217        C218   1.406       .  A
C217        C222   1.407       .  A
C218        C219   1.403       .  A
C218        H229   1.083       .  S
C219        C220   1.406       .  A
C219        H230   1.083       .  S
C220        C221   1.406       .  A
C221        C222   1.395       .  A
C221        H231   1.083       .  S
C222        H232   1.081       .  S
C233        C234   1.415       .  A
C233        C238   1.413       .  A
C234        C235   1.402       .  A
C234        H247   1.080       .  S
C235        C236   1.402       .  A
C235        H248   1.083       .  S
C236        C237   1.404       .  A
C236        C239   1.488       .  S
C237        C238   1.394       .  A
C237        H249   1.082       .  S
C238        H250   1.083       .  S
C239        C240   1.349       .  D
C239        H251   1.084       .  S
C240        C241   1.490       .  S
C240        H252   1.086       .  S
C241        C242   1.404       .  A
C241        C246   1.409       .  A
C242        C243   1.396       .  A
C242        H253   1.084       .  S
C243        C244   1.404       .  A
C243        H254   1.083       .  S
C244        C245   1.407       .  A
C245        C246   1.402       .  A
C245        H255   1.083       .  S
C246        H256   1.080       .  S
C257        C258   1.406       .  A
C257        C262   1.404       .  A
C258        C259   1.395       .  A
C258        H271   1.083       .  S
C259        C260   1.400       .  A
C259        H272   1.084       .  S
C260        C261   1.407       .  A
C260        C263   1.478       .  S
C261        C262   1.400       .  A
C261        H273   1.083       .  S
C262        H274   1.083       .  S
C263        C264   1.342       .  D
C263        H275   1.087       .  S
C264        C265   1.479       .  S
C264        H276   1.087       .  S
C265        C266   1.398       .  A
C265        C270   1.404       .  A
C266        C267   1.394       .  A
C266        H277   1.083       .  S
C267        C268   1.414       .  A
C267        H278   1.083       .  S
C268        C269   1.414       .  A
C269        C270   1.398       .  A
C269        H279   1.079       .  S
C270        H280   1.083       .  S
C281        C687   1.554       .  S
C281        C282   1.414       .  A
C281        C286   1.413       .  A
C282        C283   1.394       .  A
C282        H295   1.081       .  S
C283        C284   1.400       .  A
C283        H296   1.084       .  S
C284        C285   1.408       .  A
C284        C287   1.491       .  S
C285        C286   1.403       .  A
C285        H297   1.081       .  S
C286        H298   1.083       .  S
C287        C288   1.348       .  D
C287        H299   1.085       .  S
C288        C289   1.491       .  S
C288        H300   1.084       .  S
C289        C290   1.404       .  A
C289        C294   1.409       .  A
C290        C291   1.401       .  A
C290        H301   1.083       .  S
C291        C292   1.407       .  A
C291        H302   1.083       .  S
C292        C293   1.405       .  A
C293        C294   1.398       .  A
C293        H303   1.083       .  S
C294        H304   1.081       .  S
C305        C306   1.415       .  A
C305        C310   1.412       .  A
C306        C307   1.390       .  A
C306        H319   1.083       .  S
C307        C308   1.396       .  A
C307        H320   1.084       .  S
C308        C309   1.408       .  A
C308        C311   1.484       .  S
C309        C310   1.406       .  A
C309        H321   1.082       .  S
C310        H322   1.079       .  S
C311        C312   1.347       .  D
C311        H323   1.084       .  S
C312        C313   1.492       .  S
C312        H324   1.086       .  S
C313        C314   1.401       .  A
C313        C318   1.407       .  A
C314        C315   1.399       .  A
C314        H325   1.083       .  S
C315        C316   1.414       .  A
C315        H326   1.078       .  S
C316        C317   1.412       .  A
C317        C318   1.397       .  A
C317        H327   1.083       .  S
C318        H328   1.080       .  S
C329        C970   1.413       .  A
C329        C974   1.413       .  A
C330        C331   1.396       .  A
C330        C969   1.414       .  A
C330        H983   1.080       .  S
C331        C332   1.400       .  A
C331        H344   1.084       .  S
C332        C333   1.406   1_556  A
C332        C335   1.488       .  S
C333        C334   1.401       .  A
C333        H345   1.081       .  S
C334        C969   1.413   1_554  A
C334        H346   1.083       .  S
C335        C336   1.349   1_556  D
C335        H347   1.084       .  S
C336        C337   1.491       .  S
C336        H348   1.085       .  S
C337        C338   1.403       .  A
C337        C342   1.405   1_554  A
C338        C339   1.399       .  A
C338        H349   1.083       .  S
C339        C980   1.413       .  A
C339        H350   1.079       .  S
C340        C979   1.413       .  A
C340        C981   1.413       .  A
C341        C342   1.397       .  A
C341        C980   1.413   1_556  A
C341        H351   1.083       .  S
C342        H352   1.081       .  S
H343        C970   1.080       .  S
C353        C354   1.406       .  A
C353        C358   1.405       .  A
C354        C355   1.390       .  A
C354        H367   1.083       .  S
C355        C356   1.398       .  A
C355        H368   1.084       .  S
C356        C357   1.410       .  A
C356        C359   1.481       .  S
C357        C358   1.403       .  A
C357        H369   1.082       .  S
C358        H370   1.083       .  S
C359        C360   1.342       .  D
C359        H371   1.086       .  S
C360        C361   1.483       .  S
C360        H372   1.085       .  S
C361        C362   1.398       .  A
C361        C366   1.406       .  A
C362        C363   1.396       .  A
C362        H373   1.084       .  S
C363        C364   1.417       .  A
C363        H374   1.079       .  S
C364        C672   1.552   1_554  S
C364        C365   1.411       .  A
C365        C366   1.395       .  A
C365        H375   1.083       .  S
C366        H376   1.082       .  S
C377        C378   1.407       .  A
C377        C382   1.405       .  A
C378        C379   1.397       .  A
C378        H391   1.083       .  S
C379        C380   1.401       .  A
C379        H392   1.083       .  S
C380        C381   1.408       .  A
C380        C383   1.484       .  S
C381        C382   1.400       .  A
C381        H393   1.082       .  S
C382        H394   1.083       .  S
C383        C384   1.344       .  D
C383        H395   1.085       .  S
C384        C385   1.485       .  S
C384        H396   1.086       .  S
C385        C386   1.399       .  A
C385        C390   1.407       .  A
C386        C387   1.394       .  A
C386        H397   1.083       .  S
C387        C388   1.414       .  A
C387        H398   1.083       .  S
C388        C389   1.413       .  A
C389        C390   1.400       .  A
C389        H399   1.079       .  S
C390        H400   1.082       .  S
C401        C402   1.405       .  A
C401        C406   1.405       .  A
C402        C403   1.391       .  A
C402        H415   1.083       .  S
C403        C404   1.400       .  A
C403        H416   1.084       .  S
C404        C405   1.410       .  A
C404        C407   1.483       .  S
C405        C406   1.404       .  A
C405        H417   1.081       .  S
C406        H418   1.083       .  S
C407        C408   1.346       .  D
C407        H419   1.085       .  S
C408        C409   1.488       .  S
C408        H420   1.085       .  S
C409        C410   1.400       .  A
C409        C414   1.407       .  A
C410        C411   1.397       .  A
C410        H421   1.083       .  S
C411        C412   1.415       .  A
C411        H422   1.083       .  S
C412        C413   1.412       .  A
C413        C414   1.396       .  A
C413        H423   1.079       .  S
C414        H424   1.081       .  S
C425        C671   1.554   1_554  S
C425        C426   1.413       .  A
C425        C430   1.414       .  A
C426        C427   1.402       .  A
C426        H439   1.079       .  S
C427        C428   1.404       .  A
C427        H440   1.083       .  S
C428        C429   1.403       .  A
C428        C431   1.490       .  S
C429        C430   1.393       .  A
C429        H441   1.081       .  S
C430        H442   1.083       .  S
C431        C432   1.351       .  D
C431        H443   1.084       .  S
C432        C433   1.489       .  S
C432        H444   1.085       .  S
C433        C434   1.405       .  A
C433        C438   1.407       .  A
C434        C435   1.399       .  A
C434        H445   1.083       .  S
C435        C436   1.405       .  A
C435        H446   1.083       .  S
C436        C437   1.407       .  A
C437        C438   1.399       .  A
C437        H447   1.083       .  S
C438        H448   1.081       .  S
C449        C450   1.412       .  A
C449        C454   1.413       .  A
C450        C451   1.394       .  A
C450        H463   1.083       .  S
C451        C452   1.400       .  A
C451        H464   1.083       .  S
C452        C453   1.406       .  A
C452        C455   1.484       .  S
C453        C454   1.401       .  A
C453        H465   1.082       .  S
C454        H466   1.080       .  S
C455        C456   1.346       .  D
C455        H467   1.087       .  S
C456        C457   1.484       .  S
C456        H468   1.085       .  S
C457        C458   1.399       .  A
C457        C462   1.404       .  A
C458        C459   1.397       .  A
C458        H469   1.083       .  S
C459        C460   1.414       .  A
C459        H470   1.083       .  S
C460        C461   1.413       .  A
C461        C462   1.398       .  A
C461        H471   1.079       .  S
C462        H472   1.083       .  S
C473        C474   1.418       .  A
C473       C1118   1.416       .  A
C474        C475   1.387       .  A
C474        H487   1.079       .  S
C475        C476   1.396       .  A
C475        H488   1.084       .  S
C476       C1117   1.409       .  A
C476        C479   1.490       .  S
C477        C478   1.409       .  A
C477       C1116   1.407   1_554  A
C477        H489   1.081       .  S
C478       C1113   1.416   1_554  A
C478        H490   1.083       .  S
C479       C1120   1.348       .  D
C479        H491   1.085       .  S
C480        C481   1.493       .  S
C480       C1119   1.348       .  D
C480        H492   1.085   1_556  S
C481        C482   1.402   1_556  A
C481       C1126   1.407       .  A
C482        C483   1.403       .  A
C482        H493   1.083       .  S
C483       C1124   1.416   1_554  A
C483        H494   1.083       .  S
C484        C485   1.412       .  A
C484       C1123   1.415       .  A
C485        C486   1.396       .  A
C485        H495   1.080       .  S
C486       C1121   1.408       .  A
C486        H496   1.082       .  S
C497        C498   1.413       .  A
C497        C502   1.415       .  A
C498        C499   1.394       .  A
C498        H511   1.079       .  S
C499        C500   1.400       .  A
C499        H512   1.084       .  S
C500        C501   1.405       .  A
C500        C503   1.487       .  S
C501        C502   1.403       .  A
C501        H513   1.081       .  S
C502        H514   1.083       .  S
C503        C504   1.350       .  D
C503        H515   1.085       .  S
C504        C505   1.492       .  S
C504        H516   1.085       .  S
C505        C506   1.404       .  A
C505        C510   1.403       .  A
C506        C507   1.405       .  A
C506        H517   1.083       .  S
C507        C508   1.413       .  A
C507        H518   1.083       .  S
C508        C509   1.416       .  A
C509        C510   1.391       .  A
C509        H519   1.080       .  S
C510        H520   1.081       .  S
C521        C522   1.414       .  A
C521       C1166   1.413       .  A
C522        C523   1.403       .  A
C522        H535   1.083       .  S
C523       C1164   1.402       .  A
C523        H536   1.083       .  S
C524        C525   1.403   1_556  A
C524       C1163   1.402       .  A
C524        C527   1.488       .  S
C525        C526   1.393       .  A
C525        H537   1.083       .  S
C526       C1161   1.413   1_554  A
C526        H538   1.081       .  S
C527        C528   1.346       .  D
C527       H1179   1.086       .  S
C528        C529   1.481       .  S
C528        H540   1.087   1_556  S
C529        C530   1.397       .  A
C529       C1174   1.406       .  A
C530        C531   1.388       .  A
C530        H541   1.084       .  S
C531       C1172   1.412       .  A
C531        H542   1.083       .  S
C532        C533   1.415       .  A
C532       C1171   1.412       .  A
C533        C534   1.406       .  A
C533        H543   1.079       .  S
C534       C1169   1.406       .  A
C534        H544   1.082       .  S
H539       C1167   1.085       .  S
C545        C546   1.415       .  A
C545        C550   1.413       .  A
C546        C547   1.400       .  A
C546        H559   1.080       .  S
C547        C548   1.402       .  A
C547        H560   1.083       .  S
C548        C549   1.405       .  A
C548        C551   1.490       .  S
C549        C550   1.398       .  A
C549        H561   1.082       .  S
C550        H562   1.083       .  S
C551        C552   1.349       .  D
C551        H563   1.084       .  S
C552        C553   1.491       .  S
C552        H564   1.085       .  S
C553        C554   1.404       .  A
C553        C558   1.409       .  A
C554        C555   1.398       .  A
C554        H565   1.083       .  S
C555        C556   1.405       .  A
C555        H566   1.083       .  S
C556        C557   1.407       .  A
C557        C558   1.402       .  A
C557        H567   1.083       .  S
C558        H568   1.081       .  S
C569        C656   1.560   1_554  S
C569        C570   1.415       .  A
C569        C574   1.415       .  A
C570        C571   1.392       .  A
C570        H583   1.078       .  S
C571        C572   1.400       .  A
C571        H584   1.084       .  S
C572        C573   1.408       .  A
C572        C575   1.491       .  S
C573        C574   1.404       .  A
C573        H585   1.080       .  S
C574        H586   1.083       .  S
C575        C576   1.349       .  D
C575        H587   1.085       .  S
C576        C577   1.492       .  S
C576        H588   1.084       .  S
C577        C578   1.406       .  A
C577        C582   1.408       .  A
C578        C579   1.403       .  A
C578        H589   1.083       .  S
C579        C580   1.406       .  A
C579        H590   1.083       .  S
C580        C581   1.404       .  A
C581        C582   1.394       .  A
C581        H591   1.083       .  S
C582        H592   1.081       .  S
C593        C594   1.405       .  A
C593        C598   1.404       .  A
C594        C595   1.397       .  A
C594        H607   1.083       .  S
C595        C596   1.402       .  A
C595        H608   1.083       .  S
C596        C597   1.408       .  A
C596        C599   1.486       .  S
C597        C598   1.399       .  A
C597        H609   1.082       .  S
C598        H610   1.083       .  S
C599        C600   1.347       .  D
C599        H611   1.085       .  S
C600        C601   1.487       .  S
C600        H612   1.086       .  S
C601        C602   1.400       .  A
C601        C606   1.405       .  A
C602        C603   1.396       .  A
C602        H613   1.084       .  S
C603        C604   1.414       .  A
C603        H614   1.078       .  S
C604        C605   1.415       .  A
C605        C606   1.398       .  A
C605        H615   1.083       .  S
C606        H616   1.081       .  S
C617        C655   1.558   1_554  S
C617        C618   1.415       .  A
C617        C622   1.414       .  A
C618        C619   1.393       .  A
C618        H631   1.080       .  S
C619        C620   1.399       .  A
C619        H632   1.084       .  S
C620        C621   1.407       .  A
C620        C623   1.488       .  S
C621        C622   1.404       .  A
C621        H633   1.081       .  S
C622        H634   1.083       .  S
C623        C624   1.348       .  D
C623        H635   1.086       .  S
C624        C625   1.489       .  S
C624        H636   1.084       .  S
C625        C626   1.404       .  A
C625        C630   1.407       .  A
C626        C627   1.403       .  A
C626        H637   1.083       .  S
C627        C628   1.407       .  A
C627        H638   1.083       .  S
C628        C629   1.405       .  A
C629        C630   1.396       .  A
C629        H639   1.083       .  S
C630        H640   1.082       .  S
O641       Ni649   1.912   1_545  S
O641        C651   1.281       .  A
O642       Ni649   1.917       .  S
O642        C652   1.282       .  A
O643       Ni649   1.909       .  S
O643        C653   1.281       .  A
O644       Ni649   1.907   1_545  S
O644        C654   1.279       .  A
O645       Ni650   1.928   1_545  S
O645        C654   1.284       .  A
O646       Ni650   1.930       .  S
O646        C653   1.284       .  A
O647       Ni650   1.928       .  S
O647        C652   1.283       .  A
O648       Ni650   1.926   1_545  S
O648        C651   1.283       .  A
Ni649      Ni650   2.386       .  S
C651       C1268   1.482       .  S
C652       C1196   1.488       .  S
C653       C1220   1.485       .  S
C654       C1233   1.479       .  S
C655       C1137   1.554       .  S
C655       C1172   1.553       .  S
C655       C1244   1.556       .  S
C656       C1100   1.554   1_556  S
C656       C1124   1.556       .  S
C656       C1185   1.558       .  S
O657       Ni665   1.898   1_565  S
O657        C667   1.278       .  A
O658       Ni665   1.900       .  S
O658        C668   1.279       .  A
O659       Ni665   1.920       .  S
O659        C669   1.283       .  A
O660       Ni665   1.920   1_565  S
O660        C670   1.282       .  A
O661       Ni666   1.907   1_565  S
O661        C670   1.279       .  A
O662       Ni666   1.910       .  S
O662        C669   1.280       .  A
O663       Ni666   1.930       .  S
O663        C668   1.284       .  A
O664       Ni666   1.933   1_565  S
O664        C667   1.285       .  A
Ni665      Ni666   2.388       .  S
C667        C993   1.481       .  S
C668       C1041   1.478       .  S
C669       C1076   1.479       .  S
C670       C1017   1.473       .  S
C671        C969   1.551       .  S
C671       C1052   1.555       .  S
C671       C1161   1.554       .  S
C672        C945   1.548       .  S
C672       C1028   1.555       .  S
C672       C1113   1.561       .  S
O673       Ni681   1.908       .  S
O673        C683   1.279       .  A
O674       Ni681   1.909       .  S
O674        C684   1.280       .  A
O675       Ni681   1.914       .  S
O675        C685   1.282       .  A
O676       Ni681   1.918       .  S
O676        C686   1.283       .  A
O677       Ni682   1.916       .  S
O677        C686   1.281       .  A
O678       Ni682   1.917       .  S
O678        C685   1.282       .  A
O679       Ni682   1.932       .  S
O679        C684   1.284       .  A
O680       Ni682   1.929       .  S
O680        C683   1.284       .  A
Ni681      Ni682   2.387       .  S
C683        C897   1.475       .  S
C684        C860   1.486   1_455  S
C685        C884   1.481   1_455  S
C686        C932   1.482       .  S
C687        C836   1.551       .  S
C687        C908   1.554   1_554  S
C687       C1148   1.553       .  S
C688        C812   1.554       .  S
C688        C873   1.552   1_554  S
C688        C980   1.552       .  S
O689       Ni697   1.899       .  S
O689        C699   1.278       .  A
O690       Ni697   1.897       .  S
O690        C700   1.278       .  A
O691       Ni697   1.927       .  S
O691        C701   1.284       .  A
O692       Ni697   1.929       .  S
O692        C702   1.284       .  A
O693       Ni698   1.906       .  S
O693        C702   1.279       .  A
O694       Ni698   1.909       .  S
O694        C701   1.279       .  A
O695       Ni698   1.934       .  S
O695        C700   1.285       .  A
O696       Ni698   1.935       .  S
O696        C699   1.285       .  A
Ni697      Ni698   2.388       .  S
C699        C716   1.477   1_455  S
C700        C777   1.481       .  S
C701        C753   1.474       .  S
C702        C740   1.475   1_455  S
C703        C764   1.558       .  S
C703        C825   1.557       .  S
C703       C1089   1.551       .  S
C704        C705   1.555   1_554  S
C704        C801   1.555       .  S
C704        C956   1.550       .  S
C705        C706   1.415       .  A
C705        C710   1.412       .  A
C706        C707   1.399       .  A
C706        H719   1.079       .  S
C707        C708   1.401       .  A
C707        H720   1.083       .  S
C708        C709   1.407       .  A
C708        C711   1.491       .  S
C709        C710   1.396       .  A
C709        H721   1.080       .  S
C710        H722   1.083       .  S
C711        C712   1.346       .  D
C711        H723   1.086       .  S
C712        C713   1.481       .  S
C712        H724   1.083       .  S
C713        C714   1.400       .  A
C713        C718   1.409       .  A
C714        C715   1.393       .  A
C714        H725   1.084       .  S
C715        C716   1.405       .  A
C715        H726   1.083   1_655  S
C716        C717   1.405       .  A
C717        C718   1.404       .  A
C717        H727   1.083       .  S
C718        H728   1.082       .  S
C729        C730   1.413       .  A
C729        C734   1.415       .  A
C730        C731   1.394       .  A
C730        H743   1.079       .  S
C731        C732   1.399       .  A
C731        H744   1.084       .  S
C732        C733   1.405       .  A
C732        C735   1.484       .  S
C733        C734   1.400       .  A
C733        H745   1.081       .  S
C734        H746   1.083       .  S
C735        C736   1.343       .  D
C735        H747   1.088       .  S
C736        C737   1.480       .  S
C736        H748   1.085       .  S
C737        C738   1.400       .  A
C737        C742   1.408       .  A
C738        C739   1.396       .  A
C738        H749   1.083       .  S
C739        C740   1.406       .  A
C739        H750   1.083       .  S
C740        C741   1.403       .  A
C741        C742   1.400       .  A
C741        H751   1.083       .  S
C742        H752   1.083       .  S
C753        C754   1.406       .  A
C753        C758   1.402       .  A
C754        C755   1.400       .  A
C754        H767   1.083       .  S
C755        C756   1.401       .  A
C755        H768   1.083       .  S
C756        C757   1.407       .  A
C756        C759   1.482       .  S
C757        C758   1.398       .  A
C757        H769   1.083       .  S
C758        H770   1.083       .  S
C759        C760   1.344       .  D
C759        H771   1.085       .  S
C760        C761   1.484       .  S
C760        H772   1.088       .  S
C761        C762   1.399       .  A
C761        C766   1.406       .  A
C762        C763   1.393       .  A
C762        H773   1.084       .  S
C763        C764   1.414       .  A
C763        H774   1.079       .  S
C764        C765   1.415       .  A
C765        C766   1.402       .  A
C765        H775   1.083       .  S
C766        H776   1.081       .  S
C777        C778   1.406       .  A
C777        C782   1.406       .  A
C778        C779   1.391       .  A
C778        H791   1.083       .  S
C779        C780   1.399       .  A
C779        H792   1.084       .  S
C780        C781   1.410       .  A
C780        C783   1.483       .  S
C781        C782   1.404       .  A
C781        H793   1.082       .  S
C782        H794   1.083       .  S
C783        C784   1.345       .  D
C783        H795   1.085       .  S
C784        C785   1.487       .  S
C784        H796   1.086       .  S
C785        C786   1.401       .  A
C785        C790   1.406       .  A
C786        C787   1.398       .  A
C786        H797   1.083       .  S
C787        C788   1.415       .  A
C787        H798   1.079       .  S
C788        C789   1.412       .  A
C789        C790   1.394       .  A
C789        H799   1.083       .  S
C790        H800   1.081       .  S
C801        C806   1.414   1_554  A
C802        C803   1.391       .  A
C802        H815   1.078       .  S
C803        C804   1.397       .  A
C803        H816   1.084       .  S
C804        C807   1.484       .  S
C805        C806   1.400       .  A
C805        H817   1.082       .  S
C806        H818   1.083       .  S
C807        H819   1.086       .  S
C808        C809   1.481       .  S
C808        H820   1.086       .  S
C809        C810   1.398       .  A
C810        C811   1.395       .  A
C810        H821   1.084       .  S
C811        C812   1.415   1_556  A
C811        H822   1.080       .  S
C813        C814   1.400       .  A
C813        H823   1.083       .  S
C814        H824   1.082       .  S
C825        C826   1.415   1_556  A
C825        C830   1.416       .  A
C826        C827   1.401       .  A
C826        H839   1.083       .  S
C827        C828   1.400   1_554  A
C827        H840   1.083       .  S
C828        C829   1.403       .  A
C828        C831   1.487       .  S
C829        C830   1.394       .  A
C829        H841   1.083       .  S
C831        C832   1.345       .  D
C831        H843   1.086   1_556  S
C832        C833   1.479       .  S
C832        H844   1.086       .  S
C833        C834   1.396   1_556  A
C833        C838   1.406       .  A
C834        C835   1.388       .  A
C834        H845   1.084       .  S
C835        C836   1.414       .  A
C836        C837   1.414   1_554  A
C837        C838   1.406       .  A
C837        H847   1.079       .  S
C838        H848   1.083       .  S
C849        C850   1.414       .  A
C849        C854   1.415       .  A
C850        C851   1.396       .  A
C850        H863   1.078       .  S
C851        C852   1.402       .  A
C851        H864   1.084       .  S
C852        C853   1.407       .  A
C852        C855   1.494       .  S
C853        C854   1.402       .  A
C853        H865   1.080       .  S
C854        H866   1.083       .  S
C855        C856   1.352       .  D
C855        H867   1.084       .  S
C856        C857   1.494       .  S
C856        H868   1.083       .  S
C857        C858   1.407       .  A
C857        C862   1.408       .  A
C858        C859   1.404       .  A
C858        H869   1.083       .  S
C859        C860   1.406       .  A
C859        H870   1.083       .  S
C860        C861   1.406       .  A
C861        C862   1.396       .  A
C861        H871   1.083       .  S
C862        H872   1.081       .  S
C873        C874   1.414       .  A
C873        C878   1.413       .  A
C874        C875   1.400       .  A
C874        H887   1.079       .  S
C875        C876   1.402       .  A
C875        H888   1.083       .  S
C876        C877   1.404       .  A
C876        C879   1.486       .  S
C877        C878   1.393       .  A
C877        H889   1.082       .  S
C878        H890   1.083       .  S
C879        C880   1.348       .  D
C879        H891   1.084       .  S
C880        C881   1.487       .  S
C880        H892   1.086       .  S
C881        C882   1.404       .  A
C881        C886   1.408       .  A
C882        C883   1.395       .  A
C882        H893   1.083       .  S
C883        C884   1.404       .  A
C883        H894   1.083       .  S
C884        C885   1.406       .  A
C885        C886   1.400       .  A
C885        H895   1.083       .  S
C886        H896   1.080       .  S
C897        C898   1.405       .  A
C897        C902   1.403       .  A
C898        C899   1.396       .  A
C898        H911   1.083       .  S
C899        C900   1.401       .  A
C899        H912   1.084       .  S
C900        C901   1.409       .  A
C900        C903   1.484       .  S
C901        C902   1.401       .  A
C901        H913   1.082       .  S
C902        H914   1.083       .  S
C903        C904   1.344       .  D
C903        H915   1.086       .  S
C904        C905   1.483       .  S
C904        H916   1.086       .  S
C905        C906   1.397       .  A
C905        C910   1.406       .  A
C906        C907   1.393       .  A
C906        H917   1.083       .  S
C907        C908   1.414       .  A
C907        H918   1.083       .  S
C908        C909   1.414       .  A
C909        C910   1.401       .  A
C909        H919   1.079   1_556  S
C910        H920   1.082       .  S
C921        C922   1.413       .  A
C921        C926   1.413       .  A
C922        C923   1.392       .  A
C922        H935   1.080       .  S
C923        C924   1.400       .  A
C923        H936   1.084       .  S
C924        C925   1.408       .  A
C924        C927   1.488       .  S
C925        C926   1.402       .  A
C925        H937   1.080       .  S
C926        H938   1.083       .  S
C927        C928   1.347       .  D
C927        H939   1.086       .  S
C928        C929   1.486       .  S
C928        H940   1.083       .  S
C929        C930   1.403       .  A
C929        C934   1.407       .  A
C930        C931   1.401       .  A
C930        H941   1.083       .  S
C931        C932   1.408       .  A
C931        H942   1.083       .  S
C932        C933   1.404       .  A
C933        C934   1.395       .  A
C933        H943   1.083       .  S
C934        H944   1.082       .  S
C945        C946   1.414       .  A
C945        C950   1.413       .  A
C946        C947   1.388       .  A
C946        H959   1.083       .  S
C947        C948   1.395       .  A
C947        H960   1.084       .  S
C948        C949   1.406       .  A
C948        C951   1.477       .  S
C949        C950   1.404       .  A
C949        H961   1.083       .  S
C950        H962   1.079       .  S
C951        C952   1.345   1_556  D
C951        H963   1.085       .  S
C952        C953   1.487       .  S
C952        H964   1.086       .  S
C953        C954   1.401       .  A
C953        C958   1.406       .  A
C954        C955   1.399       .  A
C954        H965   1.083       .  S
C955        C956   1.415       .  A
C955        H966   1.079       .  S
C956        C957   1.411       .  A
C957        C958   1.394       .  A
C957        H967   1.083       .  S
C958        H968   1.081       .  S
C970        C971   1.395       .  A
C971        C972   1.400       .  A
C971        H984   1.084       .  S
C972        C973   1.406       .  A
C972        C975   1.487       .  S
C973        C974   1.400       .  A
C973        H985   1.082       .  S
C974        H986   1.083       .  S
C975        C976   1.349       .  D
C975        H987   1.083       .  S
C976        C977   1.492       .  S
C976        H988   1.085       .  S
C977        C978   1.403       .  A
C977        C982   1.407       .  A
C978        C979   1.399       .  A
C978        H989   1.083       .  S
C979        H990   1.079       .  S
C981        C982   1.397       .  A
C981        H991   1.083       .  S
C982        H992   1.080       .  S
C993        C994   1.407       .  A
C993        C998   1.406       .  A
C994        C995   1.391       .  A
C994       H1007   1.083       .  S
C995        C996   1.398       .  A
C995       H1008   1.084       .  S
C996        C997   1.409       .  A
C996        C999   1.481       .  S
C997        C998   1.403       .  A
C997       H1009   1.082       .  S
C998       H1010   1.083       .  S
C999       C1000   1.342       .  D
C999       H1011   1.086       .  S
C1000      C1001   1.484       .  S
C1000      H1012   1.086       .  S
C1001      C1002   1.397       .  A
C1001      C1006   1.406       .  A
C1002      C1003   1.395       .  A
C1002      H1013   1.084       .  S
C1003      C1004   1.417       .  A
C1003      H1014   1.080       .  S
C1004      C1005   1.412       .  A
C1005      C1006   1.398       .  A
C1005      H1015   1.083       .  S
C1006      H1016   1.082       .  S
C1017      C1018   1.405       .  A
C1017      C1022   1.403       .  A
C1018      C1019   1.395       .  A
C1018      H1031   1.083       .  S
C1019      C1020   1.400       .  A
C1019      H1032   1.083       .  S
C1020      C1021   1.408       .  A
C1020      C1023   1.479       .  S
C1021      C1022   1.398       .  A
C1021      H1033   1.082       .  S
C1022      H1034   1.083       .  S
C1023      C1024   1.344       .  D
C1023      H1035   1.084       .  S
C1024      C1025   1.484       .  S
C1024      H1036   1.087       .  S
C1025      C1026   1.400       .  A
C1025      C1030   1.406       .  A
C1026      C1027   1.394       .  A
C1026      H1037   1.083       .  S
C1027      C1028   1.413       .  A
C1027      H1038   1.083       .  S
C1028      C1029   1.413       .  A
C1029      C1030   1.396       .  A
C1029      H1039   1.079       .  S
C1030      H1040   1.080       .  S
C1041      C1042   1.404       .  A
C1041      C1046   1.406       .  A
C1042      C1043   1.391       .  A
C1042      H1055   1.083       .  S
C1043      C1044   1.400       .  A
C1043      H1056   1.084       .  S
C1044      C1045   1.409       .  A
C1044      C1047   1.483       .  S
C1045      C1046   1.404       .  A
C1045      H1057   1.082       .  S
C1046      H1058   1.083       .  S
C1047      C1048   1.346       .  D
C1047      H1059   1.085       .  S
C1048      C1049   1.487       .  S
C1048      H1060   1.085       .  S
C1049      C1050   1.400       .  A
C1049      C1054   1.406       .  A
C1050      C1051   1.398       .  A
C1050      H1061   1.083       .  S
C1051      C1052   1.415       .  A
C1051      H1062   1.083       .  S
C1052      C1053   1.413       .  A
C1053      C1054   1.395       .  A
C1053      H1063   1.079       .  S
C1054      H1064   1.082       .  S
C1065      C1066   1.412       .  A
C1065      C1070   1.414       .  A
C1066      C1067   1.400       .  A
C1066      H1079   1.080       .  S
C1067      C1068   1.403       .  A
C1067      H1080   1.083       .  S
C1068      C1069   1.404       .  A
C1068      C1071   1.487       .  S
C1069      C1070   1.393       .  A
C1069      H1081   1.081       .  S
C1070      H1082   1.083       .  S
C1071      C1072   1.349       .  D
C1071      H1083   1.083       .  S
C1072      C1073   1.487       .  S
C1072      H1084   1.085       .  S
C1073      C1074   1.405       .  A
C1073      C1078   1.408       .  A
C1074      C1075   1.397       .  A
C1074      H1085   1.083       .  S
C1075      C1076   1.404       .  A
C1075      H1086   1.083       .  S
C1076      C1077   1.406       .  A
C1077      C1078   1.397       .  A
C1077      H1087   1.083       .  S
C1078      H1088   1.080       .  S
C1089      C1090   1.412   1_556  A
C1089      C1094   1.415       .  A
C1090      C1091   1.394       .  A
C1090      H1103   1.083       .  S
C1091      C1092   1.400       .  A
C1091      H1104   1.083       .  S
C1092      C1093   1.407   1_554  A
C1092      C1095   1.488       .  S
C1093      C1094   1.404       .  A
C1093      H1105   1.082       .  S
C1094      H1106   1.080       .  S
C1095      C1096   1.347   1_554  D
C1095      H1107   1.086       .  S
C1096      C1097   1.489       .  S
C1096      H1108   1.085       .  S
C1097      C1098   1.400       .  A
C1097      C1102   1.406   1_556  A
C1098      C1099   1.399       .  A
C1098      H1109   1.083       .  S
C1099      C1100   1.415   1_556  A
C1099      H1110   1.083       .  S
C1100      C1101   1.414       .  A
C1101      C1102   1.400       .  A
C1101      H1111   1.079       .  S
C1102      H1112   1.083       .  S
C1113      C1114   1.417       .  A
C1114      C1115   1.388       .  A
C1114      H1127   1.078       .  S
C1115      C1116   1.396       .  A
C1115      H1128   1.084       .  S
C1116      C1119   1.487       .  S
C1117      C1118   1.411       .  A
C1117      H1129   1.081       .  S
C1118      H1130   1.083       .  S
C1119      H1131   1.085       .  S
C1120      C1121   1.494       .  S
C1120      H1132   1.084       .  S
C1121      C1122   1.402       .  A
C1122      C1123   1.402       .  A
C1122      H1133   1.083       .  S
C1123      H1134   1.083       .  S
C1124      C1125   1.411       .  A
C1125      C1126   1.395       .  A
C1125      H1135   1.080       .  S
C1126      H1136   1.082       .  S
C1137      C1138   1.414       .  A
C1137      C1142   1.415   1_556  A
C1138      C1139   1.392       .  A
C1138      H1151   1.079       .  S
C1139      C1140   1.399       .  A
C1139      H1152   1.084       .  S
C1140      C1141   1.406   1_556  A
C1140      C1143   1.487       .  S
C1141      C1142   1.404       .  A
C1141      H1153   1.081       .  S
C1142      H1154   1.083       .  S
C1143      C1144   1.349   1_556  D
C1143      H1155   1.085       .  S
C1144      C1145   1.492       .  S
C1144      H1156   1.085       .  S
C1145      C1146   1.404       .  A
C1145      C1150   1.404   1_554  A
C1146      C1147   1.404       .  A
C1146      H1157   1.083       .  S
C1147      C1148   1.413       .  A
C1147      H1158   1.083       .  S
C1148      C1149   1.414   1_554  A
C1149      C1150   1.392       .  A
C1149      H1159   1.080       .  S
C1150      H1160   1.081       .  S
C1161      C1162   1.415       .  A
C1162      C1163   1.404       .  A
C1162      H1175   1.083       .  S
C1163      H1176   1.083       .  S
C1164      C1165   1.403       .  A
C1164      C1167   1.486       .  S
C1165      C1166   1.392       .  A
C1165      H1177   1.083       .  S
C1166      H1178   1.081       .  S
C1167      C1168   1.347       .  D
C1168      C1169   1.482       .  S
C1168      H1180   1.088       .  S
C1169      C1170   1.398       .  A
C1170      C1171   1.389       .  A
C1170      H1181   1.084       .  S
C1171      H1182   1.083       .  S
C1172      C1173   1.416       .  A
C1173      C1174   1.407       .  A
C1173      H1183   1.079       .  S
C1174      H1184   1.082       .  S
C1185      C1186   1.415       .  A
C1185      C1190   1.414       .  A
C1186      C1187   1.401       .  A
C1186      H1199   1.079       .  S
C1187      C1188   1.402       .  A
C1187      H1200   1.083       .  S
C1188      C1189   1.406       .  A
C1188      C1191   1.494       .  S
C1189      C1190   1.398       .  A
C1189      H1201   1.081       .  S
C1190      H1202   1.083       .  S
C1191      C1192   1.350       .  D
C1191      H1203   1.084       .  S
C1192      C1193   1.494       .  S
C1192      H1204   1.085       .  S
C1193      C1194   1.404       .  A
C1193      C1198   1.410       .  A
C1194      C1195   1.397       .  A
C1194      H1205   1.083       .  S
C1195      C1196   1.405       .  A
C1195      H1206   1.083       .  S
C1196      C1197   1.407       .  A
C1197      C1198   1.404       .  A
C1197      H1207   1.083       .  S
C1198      H1208   1.081       .  S
C1209      C1210   1.413       .  A
C1209      C1214   1.415       .  A
C1210      C1211   1.394       .  A
C1210      H1223   1.079       .  S
C1211      C1212   1.401       .  A
C1211      H1224   1.084       .  S
C1212      C1213   1.407       .  A
C1212      C1215   1.492       .  S
C1213      C1214   1.403       .  A
C1213      H1225   1.080       .  S
C1214      H1226   1.083       .  S
C1215      C1216   1.351       .  D
C1215      H1227   1.084       .  S
C1216      C1217   1.495       .  S
C1216      H1228   1.083       .  S
C1217      C1218   1.407       .  A
C1217      C1222   1.408       .  A
C1218      C1219   1.405       .  A
C1218      H1229   1.083       .  S
C1219      C1220   1.406       .  A
C1219      H1230   1.083       .  S
C1220      C1221   1.405       .  A
C1221      C1222   1.394       .  A
C1221      H1231   1.083       .  S
C1222      H1232   1.080       .  S
C1233      C1234   1.407       .  A
C1233      C1238   1.404       .  A
C1234      C1235   1.396       .  A
C1234      H1247   1.083       .  S
C1235      C1236   1.401       .  A
C1235      H1248   1.083       .  S
C1236      C1237   1.408       .  A
C1236      C1239   1.483       .  S
C1237      C1238   1.400       .  A
C1237      H1249   1.082       .  S
C1238      H1250   1.083       .  S
C1239      C1240   1.346       .  D
C1239      H1251   1.085       .  S
C1240      C1241   1.485       .  S
C1240      H1252   1.086       .  S
C1241      C1242   1.400       .  A
C1241      C1246   1.404       .  A
C1242      C1243   1.396       .  A
C1242      H1253   1.084       .  S
C1243      C1244   1.413       .  A
C1243      H1254   1.078       .  S
C1244      C1245   1.415       .  A
C1245      C1246   1.397       .  A
C1245      H1255   1.083       .  S
C1246      H1256   1.081       .  S
C1257      C1258   1.414       .  A
C1257      C1262   1.414       .  A
C1258      C1259   1.393       .  A
C1258      H1271   1.080       .  S
C1259      C1260   1.399       .  A
C1259      H1272   1.084       .  S
C1260      C1261   1.406       .  A
C1260      C1263   1.486       .  S
C1261      C1262   1.403       .  A
C1261      H1273   1.081       .  S
C1262      H1274   1.083       .  S
C1263      C1264   1.347       .  D
C1263      H1275   1.086       .  S
C1264      C1265   1.487       .  S
C1264      H1276   1.085       .  S
C1265      C1266   1.404       .  A
C1265      C1270   1.407       .  A
C1266      C1267   1.402       .  A
C1266      H1277   1.083       .  S
C1267      C1268   1.406       .  A
C1267      H1278   1.083       .  S
C1268      C1269   1.405       .  A
C1269      C1270   1.396       .  A
C1269      H1279   1.083       .  S
C1270      H1280   1.082       .  S
