geometry optimzed in LAMMPS
_audit_creation_date              2020-11-30 
_audit_creation_method            'lammps2cif' 
_symmetry_space_group_name_H-M    'P1' 
_symmetry_Int_Tables_number       1 
_symmetry_cell_setting            triclinic 
loop_ 
_symmetry_equiv_pos_as_xyz 
  x,y,z 
_cell_length_a                    36.03559389548345 
_cell_length_b                    32.12113917088862 
_cell_length_c                    28.763919888511303 
_cell_angle_alpha                 85.37733237567035 
_cell_angle_beta                  90.49472574213667 
_cell_angle_gamma                 125.46944994060225 
loop_ 
_atom_site_label 
_atom_site_type_symbol 
_atom_site_fract_x 
_atom_site_fract_y 
_atom_site_fract_z 
_atom_site_charge 
C1          C  0.34354339  0.17955198  0.02118770    -0.03200
C2          C  0.34698766  0.18920756  0.23008849    -0.03200
C3          C  0.15963677  0.33574400  0.43014316    -0.03200
C4          C  0.16125953  0.33924830  0.22082559    -0.03200
C5          C  0.41275004  0.06135975  0.48577087     0.75740
Tb6        Tb  0.05410123  0.01291213  0.48366546     1.80740
O7          O  0.42453948  0.05548960  0.44715879    -0.52280
O8          O  0.37897876  0.46955246  0.43587739    -0.59730
C9          C  0.04809044  0.10932600  0.47347220     0.91550
O10         O  0.13018417  0.08355700  0.96767728    -0.59260
Tb11       Tb  0.44553684  0.00293340  0.47765822     1.78060
O12         O  0.06781830  0.45074905  0.50347336    -0.59760
O13         O  0.42491324  0.42014249  0.48263718    -0.78560
O14         O  0.01232175  0.08271312  0.45094039    -0.77880
O15         O  0.46838170  0.01017642  0.05684635    -0.63150
C16         C  0.44744509  0.40152635  0.48437977     0.91140
O17         O  0.04079718  0.02368998  0.40354061    -0.75100
C18         C  0.08217075  0.95144608  0.46328403     0.74580
C19         C  0.35142086  0.43542305  0.46717392     0.75560
O20         O  0.42075422  0.04179113  0.02080514    -0.60340
O21         O  0.37095232  0.43264957  0.00276659    -0.52290
O22         O  0.02669524  0.00333368  0.06044147    -0.78350
O23         O  0.46822023  0.99737412  0.40287109    -0.62350
C24         C  0.50486604  0.01007519  0.38172569     0.89360
C25         C  0.49775020  0.00786150  0.07997036     0.90590
C26         C  0.14600322  0.07332675  0.00255922     0.74930
O27         O  0.08063272  0.98096620  0.43274793    -0.51680
O28         O  0.11633631  0.53478408  0.02895137    -0.52830
O29         O  0.49032926  0.42870342  0.48645684    -0.65680
O30         O  0.06116686  0.08775290  0.50055373    -0.66820
C31         C  0.42756593  0.07855603  0.25001694     0.75740
Tb32       Tb  0.06112944  0.02023019  0.22650977     1.80740
O33         O  0.45539449  0.08565408  0.21862787    -0.52280
O34         O  0.39133942  0.46356569  0.17913808    -0.59730
C35         C  0.05169744  0.11361076  0.21593189     0.91550
O36         O  0.13959390  0.08080465  0.21102986    -0.59260
Tb37       Tb  0.44790748  0.00762752  0.23441040     1.78060
O38         O  0.05857932  0.44475626  0.23625009    -0.59760
O39         O  0.43835984  0.43260684  0.26757963    -0.78560
O40         O  0.01731585  0.08627197  0.24417609    -0.77880
O41         O  0.46775854  0.99728137  0.31037277    -0.63150
C42         C  0.45494530  0.41155986  0.24988460     0.91140
O43         O  0.03568965  0.01994657  0.15077213    -0.75100
C44         C  0.08496132  0.95401586  0.20219101     0.74580
C45         C  0.35758744  0.44415558  0.20765003     0.75560
O46         O  0.40975501  0.03591990  0.27378206    -0.60340
O47         O  0.36871226  0.45459512  0.24902187    -0.52290
O48         O  0.04014276  0.02167430  0.30563367    -0.78350
O49         O  0.46722670  0.00616620  0.15529098    -0.62350
C50         C  0.50001168  0.01148516  0.13185994     0.89360
C51         C  0.50463523  0.00972515  0.32938769     0.90590
C52         C  0.15177607  0.08443289  0.25252744     0.74930
O53         O  0.10073743  0.99726958  0.18058497    -0.51680
O54         O  0.11864742  0.55822659  0.28209016    -0.52830
O55         O  0.49401006  0.43718880  0.22904029    -0.65680
O56         O  0.06617931  0.09290573  0.19371979    -0.66820
C57         C  0.07653199  0.17060691  0.21327377    -0.06840
C58         C  0.07189763  0.19062924  0.25218866    -0.17970
C59         C  0.09465107  0.24310997  0.25520162     0.10360
C60         C  0.12722886  0.27942421  0.21849411    -0.06760
C61         C  0.12519576  0.25858020  0.17612450    -0.18000
C62         C  0.10264409  0.20515815  0.17411848     0.10390
S63         S  0.07219229  0.25470467  0.30496458    -0.32960
S64         S  0.11178294  0.18363998  0.12264958    -0.32970
H65         H  0.06560957  0.14246498  0.12027058     0.28400
H66         H  0.07644412  0.29959162  0.29094633     0.28390
H67         H  0.04855010  0.16442848  0.28078884     0.18990
H68         H  0.14587268  0.28432381  0.14601507     0.18990
C69         C  0.13604058  0.36204069  0.19548997    -0.06840
C70         C  0.08955298  0.33851115  0.20788977    -0.17970
C71         C  0.07079092  0.36643010  0.20848870     0.10360
C72         C  0.09718893  0.41849163  0.19059817    -0.06760
C73         C  0.13746437  0.43664022  0.16414352    -0.18000
C74         C  0.15538590  0.40726450  0.16384954     0.10390
S75         S  0.01431866  0.33539774  0.23481061    -0.32960
S76         S  0.19455583  0.42347902  0.11577426    -0.32970
H77         H  0.18373430  0.37382391  0.11576785     0.28400
H78         H  0.00916825  0.29092143  0.25510467     0.28390
H79         H  0.06761509  0.29825815  0.21864108     0.18990
H80         H  0.15530653  0.47379873  0.14417064     0.18990
C81         C  0.21198215  0.36330917  0.20160112    -0.06840
C82         C  0.24293841  0.41762783  0.19919007    -0.17970
C83         C  0.29013134  0.44404048  0.19298878     0.10360
C84         C  0.30974982  0.41743923  0.19450688    -0.06760
C85         C  0.28151274  0.36431693  0.19568580    -0.18000
C86         C  0.23350542  0.33657464  0.19892682     0.10390
S87         S  0.32594223  0.01277982  0.18750724    -0.32960
S88         S  0.20586024  0.26828275  0.21060596    -0.32970
H89         H  0.23551772  0.26585638  0.18136474     0.28400
H90         H  0.31937338  0.01324285  0.23549623     0.28390
H91         H  0.23091078  0.44073923  0.20384394     0.18990
H92         H  0.29735483  0.34409390  0.19861596     0.18990
C93         C  0.12876686  0.27570121  0.44380805    -0.06840
C94         C  0.11238246  0.24103474  0.40882224    -0.17970
C95         C  0.08871556  0.18831606  0.41818107     0.10360
C96         C  0.07689292  0.16610829  0.46418584    -0.06760
C97         C  0.09139234  0.19863641  0.00032664    -0.18000
C98         C  0.11728149  0.25273452  0.99088504     0.10390
S99         S  0.07709620  0.15126514  0.36933346    -0.32960
S100        S  0.13269738  0.29091310  0.03958979    -0.32970
H101        H  0.15713277  0.27287694  0.05963946     0.28400
H102        H  0.09302723  0.12394740  0.39092848     0.28390
H103        H  0.11898565  0.25372539  0.37276479     0.18990
H104        H  0.08093805  0.18163068  0.03578668     0.18990
C105        C  0.13602333  0.36286213  0.44319748    -0.06840
C106        C  0.15957439  0.41570125  0.42627634    -0.17970
C107        C  0.14141410  0.44369333  0.42820557     0.10360
C108        C  0.10037592  0.42190231  0.45402019    -0.06760
C109        C  0.07582176  0.37018222  0.47132234    -0.18000
C110        C  0.09039084  0.33922953  0.46184607     0.10390
S111        S  0.17105729  0.00455936  0.39268040    -0.32960
S112        S  0.04572839  0.27114288  0.46610569    -0.32970
H113        H  0.00944969  0.27540462  0.45838505     0.28540
H114        H  0.16060294  0.03098551  0.41973970     0.28390
H115        H  0.19144225  0.43460128  0.40605632     0.18990
H116        H  0.04276660  0.35269793  0.48869269     0.18990
C117        C  0.20697946  0.36119933  0.45477972    -0.06840
C118        C  0.22311317  0.33216253  0.47318698    -0.17970
C119        C  0.26954862  0.35561672  0.48107603     0.10360
C120        C  0.30158287  0.40744696  0.46433697    -0.06760
C121        C  0.28547468  0.43645800  0.44925654    -0.18000
C122        C  0.23924659  0.41521654  0.45495007     0.10390
S123        S  0.28587867  0.31713656  0.50973167    -0.32960
S124        S  0.23046978  0.45067610  0.99365608    -0.32970
H125        H  0.19032863  0.40725793  0.51593539     0.28400
H126        H  0.30740078  0.34970865  0.54556145     0.28390
H127        H  0.20110552  0.29085262  0.47863387     0.18990
H128        H  0.30945943  0.47791215  0.44379774     0.18990
C129        C  0.16957162  0.35041223  0.27366370    -0.06840
C130        C  0.18991670  0.33036709  0.30060984    -0.17970
C131        C  0.19376593  0.33207991  0.34926438     0.10360
C132        C  0.16932278  0.34607988  0.37494323    -0.06760
C133        C  0.14773613  0.36381396  0.34672101    -0.18000
C134        C  0.15659753  0.37637812  0.29907570     0.10390
S135        S  0.22199311  0.30547862  0.37602073    -0.32960
S136        S  0.15192252  0.42713372  0.27805669    -0.32970
H137        H  0.18886631  0.45058119  0.24620060     0.28400
H138        H  0.20780235  0.26799909  0.34476350     0.28390
H139        H  0.20259282  0.31209742  0.28394342     0.18990
H140        H  0.12266163  0.36833772  0.36035713     0.18990
C141        C  0.19986690  0.10789071  0.26283845    -0.06840
C142        C  0.21689366  0.08174987  0.24837700    -0.17970
C143        C  0.26338688  0.10552020  0.24152538     0.10360
C144        C  0.29605164  0.15835170  0.24967684    -0.06760
C145        C  0.27798413  0.18229465  0.27027021    -0.18000
C146        C  0.23049581  0.15762684  0.27675680     0.10390
S147        S  0.27674720  0.06547345  0.21843474    -0.32960
S148        S  0.21115847  0.19243725  0.30039989    -0.32970
H149        H  0.16701302  0.14948797  0.31457132     0.28400
H150        H  0.25516603  0.02809380  0.25666657     0.28390
H151        H  0.19322433  0.04295023  0.23853801     0.18990
H152        H  0.29984563  0.22165551  0.27819334     0.18990
C153        C  0.37755185  0.24877874  0.23524690    -0.06840
C154        C  0.38463159  0.26619849  0.28032933    -0.17970
C155        C  0.41083260  0.31888223  0.28700913     0.10360
C156        C  0.42684013  0.35546012  0.24797534    -0.06760
C157        C  0.42232421  0.33918935  0.20372979    -0.18000
C158        C  0.40361354  0.28824621  0.19744324     0.10390
S159        S  0.42724606  0.33679007  0.34521419    -0.32960
S160        S  0.42643070  0.28120290  0.14522070    -0.32970
H161        H  0.42802537  0.31980085  0.11638010     0.28400
H162        H  0.46713349  0.38603707  0.33287136     0.28390
H163        H  0.37103765  0.23863987  0.31072044     0.18990
H164        H  0.43896731  0.36797918  0.17416234     0.18990
C165        C  0.41492737  0.11462496  0.25673246    -0.06840
C166        C  0.37697401  0.09820739  0.28620927    -0.17970
C167        C  0.35778759  0.12592478  0.28614295     0.10360
C168        C  0.37481613  0.16942284  0.25310039    -0.06760
C169        C  0.41947968  0.19211328  0.23425166    -0.18000
C170        C  0.43838410  0.16448980  0.23345128     0.10390
S171        S  0.31392614  0.10418612  0.33051062    -0.32960
S172        S  0.49048442  0.19401460  0.19879211    -0.32970
H173        H  0.46999481  0.15873323  0.16495207     0.28400
H174        H  0.32485830  0.15315802  0.33541687     0.28390
H175        H  0.36109132  0.06260262  0.30846983     0.18990
H176        H  0.43702951  0.22833949  0.21349267     0.18990
C177        C  0.29147023  0.15415514  0.00842077    -0.06840
C178        C  0.26930680  0.17796343  0.01793014    -0.17970
C179        C  0.22199655  0.15214162  0.01827465     0.10360
C180        C  0.19469428  0.10063777  0.00937740    -0.06760
C181        C  0.21499972  0.07685621  0.49775054    -0.18000
C182        C  0.26209857  0.10501325  0.49046074     0.10390
S183        S  0.19822870  0.18661847  0.03081536    -0.32960
S184        S  0.27828710  0.08303888  0.44434750    -0.32970
H185        H  0.30575584  0.13249656  0.42144460     0.28400
H186        H  0.15632170  0.14392277  0.05083884     0.28390
H187        H  0.28810764  0.21808809  0.02255779     0.18990
H188        H  0.19383446  0.03790552  0.48799657     0.18990
C189        C  0.37569574  0.23748292  0.50206435    -0.06840
C190        C  0.36007338  0.25979537  0.47049922    -0.17970
C191        C  0.38265342  0.31297113  0.46291981     0.10360
C192        C  0.42326507  0.34558853  0.48582866    -0.06760
C193        C  0.44269195  0.32443832  0.01101109    -0.18000
C194        C  0.42067709  0.27167458  0.01816427     0.10390
S195        S  0.35791168  0.33603643  0.42315834    -0.32960
S196        S  0.45342600  0.25128939  0.04511845    -0.32970
H197        H  0.49005779  0.29827490  0.05970575     0.28400
H198        H  0.39916773  0.38234022  0.40690154     0.28390
H199        H  0.32970671  0.23591736  0.45148405     0.18990
H200        H  0.47538278  0.34976098  0.02599316     0.18990
C201        C  0.35825731  0.14702018  0.50291273    -0.06840
C202        C  0.33583949  0.09636706  0.02477267    -0.17970
C203        C  0.35203251  0.06686084  0.01931156     0.10360
C204        C  0.39019305  0.08677218  0.48892658    -0.06760
C205        C  0.40758703  0.13238817  0.46069701    -0.18000
C206        C  0.39182280  0.16249462  0.46633423     0.10390
S207        S  0.32682958  0.00886085  0.05817656    -0.32960
S208        S  0.41531834  0.21708571  0.42342589    -0.32970
H209        H  0.37332019  0.20782892  0.41266562     0.28400
H210        H  0.33512650  0.98246663  0.02871379     0.28390
H211        H  0.30788082  0.08154049  0.05018017     0.18990
H212        H  0.43487719  0.14558844  0.43487311     0.18990
C213        C  0.34103187  0.18091798  0.17695861    -0.06840
C214        C  0.35635019  0.15491974  0.15646101    -0.17970
C215        C  0.36283573  0.15659087  0.10860032     0.10360
C216        C  0.34609047  0.17895092  0.07654408    -0.06760
C217        C  0.32979204  0.20377112  0.09823873    -0.18000
C218        C  0.32274981  0.20090296  0.14622577     0.10390
S219        S  0.39968892  0.13563856  0.09995779    -0.32960
S220        S  0.28992105  0.22396496  0.16331498    -0.32970
H221        H  0.31948729  0.25861814  0.19444029     0.28400
H222        H  0.41892362  0.15609555  0.05525854     0.28390
H223        H  0.36487605  0.13304893  0.17827457     0.18990
H224        H  0.32569000  0.23017736  0.07835482     0.18990
C225        C  0.34348893  0.17955126  0.52117135    -0.03200
C226        C  0.34698146  0.18920926  0.73007155    -0.03200
C227        C  0.15970510  0.33576015  0.93013604    -0.03200
C228        C  0.16127535  0.33924624  0.72082428    -0.03200
C229        C  0.41282137  0.06138022  0.98578037     0.75740
Tb230      Tb  0.05415988  0.01291162  0.98368343     1.80740
O231        O  0.42462536  0.05553183  0.94716529    -0.52280
O232        O  0.37903966  0.46959190  0.93589401    -0.59730
C233        C  0.04817061  0.10934602  0.97347181     0.91550
O234        O  0.13013083  0.08355290  0.46767952    -0.59260
Tb235      Tb  0.44560551  0.00295703  0.97764999     1.78060
O236        O  0.06793664  0.45079901  0.00349311    -0.59760
O237        O  0.42503119  0.42019756  0.98236622    -0.78560
O238        O  0.01239554  0.08273942  0.95094747    -0.77880
O239        O  0.46837387  0.01024681  0.55683657    -0.63150
C240        C  0.44753015  0.40154249  0.98441932     0.91140
O241        O  0.04081511  0.02359463  0.90354323    -0.75100
C242        C  0.08220594  0.95142668  0.96328377     0.74580
C243        C  0.35148856  0.43544233  0.96718103     0.75560
O244        O  0.42069795  0.04179072  0.52079986    -0.60340
O245        O  0.37087745  0.43264822  0.50277297    -0.52290
O246        O  0.02658689  0.00322740  0.56042719    -0.78350
O247        O  0.46829271  0.99746945  0.90284925    -0.62350
C248        C  0.50491005  0.01007537  0.88171736     0.89360
C249        C  0.49770115  0.00784920  0.57995863     0.90590
C250        C  0.14593825  0.07332212  0.50257326     0.74930
O251        O  0.08059304  0.98088269  0.93273539    -0.51680
O252        O  0.11626162  0.53478160  0.52896257    -0.52830
O253        O  0.49038917  0.42868864  0.98677121    -0.65680
O254        O  0.06124860  0.08777049  0.00054763    -0.66820
C255        C  0.42757711  0.07856710  0.75001430     0.75740
Tb256      Tb  0.06112440  0.02021726  0.72648053     1.80740
O257        O  0.45539801  0.08565673  0.71861942    -0.52280
O258        O  0.39134700  0.46345987  0.67917774    -0.59730
C259        C  0.05170468  0.11360626  0.71593358     0.91550
O260        O  0.13958924  0.08076615  0.71098944    -0.59260
Tb261      Tb  0.44791837  0.00763493  0.73442155     1.78060
O262        O  0.05857558  0.44474433  0.73623428    -0.59760
O263        O  0.43836733  0.43261048  0.76759132    -0.78560
O264        O  0.01733336  0.08626875  0.74418968    -0.77880
O265        O  0.46779549  0.99729784  0.81037326    -0.63150
C266        C  0.45494165  0.41155748  0.74988299     0.91140
O267        O  0.03565287  0.01990659  0.65075112    -0.75100
C268        C  0.08495745  0.95399954  0.70217686     0.74580
C269        C  0.35759691  0.44415270  0.70767059     0.75560
O270        O  0.40977503  0.03593880  0.77379141    -0.60340
O271        O  0.36872341  0.45469178  0.74902423    -0.52290
O272        O  0.04016702  0.02165192  0.80561830    -0.78350
O273        O  0.46722219  0.00620464  0.65528715    -0.62350
C274        C  0.49998382  0.01148279  0.63184761     0.89360
C275        C  0.50467098  0.00972246  0.82937995     0.90590
C276        C  0.15177147  0.08443105  0.75248902     0.74930
O277        O  0.10073153  0.99724980  0.68056391    -0.51680
O278        O  0.11864275  0.55825726  0.78205546    -0.52830
O279        O  0.49399913  0.43718168  0.72902376    -0.65680
O280        O  0.06617321  0.09289775  0.69370458    -0.66820
C281        C  0.07654178  0.17060270  0.71327917    -0.06840
C282        C  0.07192395  0.19062631  0.75220326    -0.17970
C283        C  0.09468134  0.24310772  0.75521739     0.10360
C284        C  0.12724520  0.27942092  0.71850006    -0.06760
C285        C  0.12519495  0.25857512  0.67612629    -0.18000
C286        C  0.10264040  0.20515300  0.67411873     0.10390
S287        S  0.07225113  0.25470707  0.80500167    -0.32960
S288        S  0.11175843  0.18363293  0.62263903    -0.32970
H289        H  0.06558187  0.14246163  0.62027281     0.28400
H290        H  0.07645876  0.29956698  0.79097032     0.28390
H291        H  0.04859059  0.16442672  0.78081283     0.18990
H292        H  0.14586089  0.28431778  0.64601182     0.18990
C293        C  0.13605013  0.36203364  0.69549545    -0.06840
C294        C  0.08956368  0.33850305  0.70790523    -0.17970
C295        C  0.07079550  0.36641702  0.70849285     0.10360
C296        C  0.09718903  0.41847597  0.69059398    -0.06760
C297        C  0.13746446  0.43662475  0.66413995    -0.18000
C298        C  0.15539025  0.40725344  0.66385042     0.10390
S299        S  0.01431977  0.33538219  0.73480778    -0.32960
S300        S  0.19456798  0.42347566  0.61578111    -0.32970
H301        H  0.18374104  0.37381900  0.61576485     0.28400
H302        H  0.00917391  0.29091188  0.75511293     0.28390
H303        H  0.06763090  0.29825262  0.71866933     0.18990
H304        H  0.15530373  0.47378104  0.64416337     0.18990
C305        C  0.21199571  0.36331094  0.70158987    -0.06840
C306        C  0.24295072  0.41762865  0.69919649    -0.17970
C307        C  0.29014445  0.44404257  0.69300977     0.10360
C308        C  0.30976335  0.41744211  0.69451304    -0.06760
C309        C  0.28152772  0.36432231  0.69565762    -0.18000
C310        C  0.23351979  0.33657936  0.69889645     0.10390
S311        S  0.32595610  0.01278157  0.68755677    -0.32960
S312        S  0.20587658  0.26828767  0.71056260    -0.32970
H313        H  0.23551767  0.26586986  0.68128633     0.28400
H314        H  0.31932339  0.01321967  0.73553629     0.28390
H315        H  0.23092016  0.44073610  0.70385925     0.18990
H316        H  0.29736929  0.34409829  0.69857303     0.18990
C317        C  0.12884546  0.27571701  0.94379738    -0.06840
C318        C  0.11248830  0.24104981  0.90881290    -0.17970
C319        C  0.08882404  0.18833138  0.91817660     0.10360
C320        C  0.07698008  0.16612661  0.96418189    -0.06760
C321        C  0.09132188  0.19861737  0.50033364    -0.18000
C322        C  0.11721273  0.25271674  0.49089493     0.10390
S323        S  0.07722595  0.15127614  0.86933566    -0.32960
S324        S  0.13264133  0.29089402  0.53960217    -0.32970
H325        H  0.15709234  0.27286866  0.55963061     0.28400
H326        H  0.09307920  0.12389520  0.89097327     0.28390
H327        H  0.11910687  0.25373670  0.87275416     0.18990
H328        H  0.08087968  0.18161027  0.53579422     0.18990
C329        C  0.13608348  0.36286824  0.94319718    -0.06840
C330        C  0.15962900  0.41570846  0.92628112    -0.17970
C331        C  0.14145909  0.44369131  0.92820898     0.10360
C332        C  0.10041414  0.42188781  0.95401358    -0.06760
C333        C  0.07586566  0.37016747  0.97131213    -0.18000
C334        C  0.09044505  0.33922404  0.96183533     0.10390
S335        S  0.17110360  0.00456848  0.89270192    -0.32960
S336        S  0.04578934  0.27113516  0.96607250    -0.32970
H337        H  0.00949577  0.27538279  0.95841668     0.28540
H338        H  0.16058037  0.03095363  0.91973389     0.28390
H339        H  0.19149881  0.43461560  0.90606321     0.18990
H340        H  0.04280809  0.35267725  0.98867955     0.18990
C341        C  0.20704808  0.36121692  0.95477323    -0.06840
C342        C  0.22318036  0.33217998  0.97318842    -0.17970
C343        C  0.26961492  0.35563411  0.98108431     0.10360
C344        C  0.30165000  0.40746409  0.96434621    -0.06760
C345        C  0.28554264  0.43647326  0.94925364    -0.18000
C346        C  0.23931493  0.41523382  0.95494095     0.10390
S347        S  0.28594375  0.31715279  0.00974040    -0.32960
S348        S  0.23040060  0.45065758  0.49366631    -0.32970
H349        H  0.19040174  0.40727609  0.01593030     0.28400
H350        H  0.30746672  0.34972567  0.04556958     0.28390
H351        H  0.20117385  0.29087007  0.97863413     0.18990
H352        H  0.30952720  0.47792718  0.94379028     0.18990
C353        C  0.16960001  0.35041858  0.77365915    -0.06840
C354        C  0.18996979  0.33039633  0.80059479    -0.17970
C355        C  0.19384196  0.33212759  0.84924663     0.10360
C356        C  0.16938469  0.34610282  0.87493544    -0.06760
C357        C  0.14777777  0.36381855  0.84672343    -0.18000
C358        C  0.15662205  0.37637712  0.79907673     0.10390
S359        S  0.22212557  0.30559054  0.87599537    -0.32960
S360        S  0.15191956  0.42711441  0.77806354    -0.32970
H361        H  0.18885583  0.45057216  0.74619586     0.28400
H362        H  0.20808569  0.26820663  0.84467204     0.28390
H363        H  0.20265104  0.31213643  0.78391937     0.18990
H364        H  0.12269895  0.36833068  0.86036872     0.18990
C365        C  0.19986106  0.10788985  0.76280685    -0.06840
C366        C  0.21688979  0.08175092  0.74834643    -0.17970
C367        C  0.26338302  0.10552147  0.74150149     0.10360
C368        C  0.29604614  0.15835031  0.74966156    -0.06760
C369        C  0.27797678  0.18228819  0.77026135    -0.18000
C370        C  0.23048709  0.15762090  0.77673813     0.10390
S371        S  0.27674598  0.06548013  0.71840446    -0.32960
S372        S  0.21114500  0.19242769  0.80037887    -0.32970
H373        H  0.16700163  0.14947603  0.81455214     0.28400
H374        H  0.25515703  0.02809187  0.75662900     0.28390
H375        H  0.19322236  0.04295313  0.73850201     0.18990
H376        H  0.29983903  0.22164575  0.77819479     0.18990
C377        C  0.37754503  0.24877868  0.73523463    -0.06840
C378        C  0.38463446  0.26619420  0.78031901    -0.17970
C379        C  0.41084235  0.31887727  0.78700190     0.10360
C380        C  0.42683104  0.35545743  0.74797172    -0.06760
C381        C  0.42230199  0.33918944  0.70372268    -0.18000
C382        C  0.40359844  0.28824925  0.69743133     0.10390
S383        S  0.42730260  0.33677877  0.84519927    -0.32960
S384        S  0.42641738  0.28121509  0.64520452    -0.32970
H385        H  0.42800767  0.31981253  0.61636778     0.28400
H386        H  0.46717773  0.38603154  0.83284272     0.28390
H387        H  0.37105078  0.23863345  0.81070828     0.18990
H388        H  0.43893448  0.36798053  0.67415496     0.18990
C389        C  0.41493329  0.11463336  0.75672213    -0.06840
C390        C  0.37697810  0.09821492  0.78619605    -0.17970
C391        C  0.35778569  0.12592647  0.78612236     0.10360
C392        C  0.37481090  0.16942144  0.75307594    -0.06760
C393        C  0.41947425  0.19211238  0.73422462    -0.18000
C394        C  0.43838503  0.16449421  0.73343430     0.10390
S395        S  0.31391797  0.10418079  0.83048467    -0.32960
S396        S  0.49049085  0.19401940  0.69878498    -0.32970
H397        H  0.46999705  0.15875043  0.66493412     0.28400
H398        H  0.32485152  0.15315183  0.83539973     0.28390
H399        H  0.36109814  0.06261283  0.80846021     0.18990
H400        H  0.43702096  0.22833582  0.71346071     0.18990
C401        C  0.29140822  0.15414809  0.50842728    -0.06840
C402        C  0.26924589  0.17795543  0.51794655    -0.17970
C403        C  0.22193447  0.15213337  0.51829760     0.10360
C404        C  0.19462867  0.10062795  0.50940366    -0.06760
C405        C  0.21506690  0.07686862  0.99772195    -0.18000
C406        C  0.26216655  0.10502434  0.99044555     0.10390
S407        S  0.19816944  0.18661274  0.53083932    -0.32960
S408        S  0.27836742  0.08305048  0.94434274    -0.32970
H409        H  0.30585954  0.13251148  0.92145170     0.28400
H410        H  0.15625936  0.14391702  0.55085687     0.28390
H411        H  0.28804821  0.21808050  0.52257238     0.18990
H412        H  0.19390361  0.03792045  0.98796199     0.18990
C413        C  0.37575664  0.23748471  0.00209397    -0.06840
C414        C  0.36014897  0.25980498  0.97052046    -0.17970
C415        C  0.38273157  0.31298034  0.96294566     0.10360
C416        C  0.42333307  0.34559531  0.98587802    -0.06760
C417        C  0.44264015  0.32444636  0.51094711    -0.18000
C418        C  0.42062447  0.27168217  0.51811695     0.10390
S419        S  0.35798810  0.33603290  0.92316978    -0.32960
S420        S  0.45337998  0.25130927  0.54507489    -0.32970
H421        H  0.48999568  0.29829655  0.55967608     0.28400
H422        H  0.39925515  0.38226887  0.90681543     0.28390
H423        H  0.32979146  0.23593170  0.95149130     0.18990
H424        H  0.47533913  0.34978471  0.52591017     0.18990
C425        C  0.35832105  0.14702946  0.00293133    -0.06840
C426        C  0.33577925  0.09636182  0.52476439    -0.17970
C427        C  0.35196829  0.06685144  0.51930409     0.10360
C428        C  0.39026459  0.08679099  0.98894217    -0.06760
C429        C  0.40766461  0.13241354  0.96072238    -0.18000
C430        C  0.39189653  0.16251525  0.96636012     0.10390
S431        S  0.32677259  0.00885992  0.55817987    -0.32960
S432        S  0.41540018  0.21711392  0.92345853    -0.32970
H433        H  0.37340460  0.20785464  0.91268071     0.28400
H434        H  0.33506051  0.98245690  0.52871798     0.28390
H435        H  0.30782783  0.08154289  0.55017938     0.18990
H436        H  0.43496113  0.14562139  0.93490422     0.18990
C437        C  0.34102187  0.18092773  0.67694091    -0.06840
C438        C  0.35634095  0.15493538  0.65643361    -0.17970
C439        C  0.36281645  0.15660794  0.60857123     0.10360
C440        C  0.34605887  0.17896215  0.57652509    -0.06760
C441        C  0.32976709  0.20378353  0.59822841    -0.18000
C442        C  0.32273453  0.20091426  0.64621713     0.10390
S443        S  0.39967698  0.13566805  0.59991171    -0.32960
S444        S  0.28990803  0.22397477  0.66331874    -0.32970
H445        H  0.31947329  0.25861981  0.69444967     0.28400
H446        H  0.41889106  0.15611704  0.55520472     0.28390
H447        H  0.36487426  0.13306710  0.67823980     0.18990
H448        H  0.32565952  0.23018753  0.57834879     0.18990
C449        C  0.34354332  0.67955190  0.02118778    -0.03200
C450        C  0.34698759  0.68920751  0.23008857    -0.03200
C451        C  0.15963678  0.83574396  0.43014325    -0.03200
C452        C  0.16125950  0.83924824  0.22082566    -0.03200
C453        C  0.41275004  0.56135977  0.48577082     0.75740
Tb454      Tb  0.05410119  0.51291210  0.48366550     1.80740
O455        O  0.42453944  0.55548961  0.44715873    -0.52280
O456        O  0.37897873  0.96955241  0.43587756    -0.59730
C457        C  0.04809041  0.60932596  0.47347223     0.91550
O458        O  0.13018411  0.58355700  0.96767733    -0.59260
Tb459      Tb  0.44553685  0.50293343  0.47765811     1.78060
O460        O  0.06781829  0.95074904  0.50347335    -0.59760
O461        O  0.42491338  0.92014255  0.48263658    -0.78560
O462        O  0.01232174  0.58271309  0.45094040    -0.77880
O463        O  0.46838183  0.51017667  0.05684620    -0.63150
C464        C  0.44744515  0.90152633  0.48437996     0.91140
O465        O  0.04079713  0.52368990  0.40354065    -0.75100
C466        C  0.08217067  0.45144604  0.46328402     0.74580
C467        C  0.35142085  0.93542300  0.46717410     0.75560
O468        O  0.42075424  0.54179116  0.02080508    -0.60340
O469        O  0.37095234  0.93264952  0.00276676    -0.52290
O470        O  0.02669524  0.50333371  0.06044151    -0.78350
O471        O  0.46822018  0.49737396  0.40287100    -0.62350
C472        C  0.50486604  0.51007523  0.38172557     0.89360
C473        C  0.49775021  0.50786153  0.07997021     0.90590
C474        C  0.14600318  0.57332672  0.00255925     0.74930
O475        O  0.08063258  0.48096611  0.43274792    -0.51680
O476        O  0.11633634  0.03478414  0.02895136    -0.52830
O477        O  0.49032927  0.92870332  0.48645773    -0.65680
O478        O  0.06116682  0.58775286  0.50055378    -0.66820
C479        C  0.42756598  0.57855612  0.25001690     0.75740
Tb480      Tb  0.06112941  0.52023015  0.22650981     1.80740
O481        O  0.45539453  0.58565419  0.21862781    -0.52280
O482        O  0.39133938  0.96356525  0.17913830    -0.59730
C483        C  0.05169739  0.61361071  0.21593196     0.91550
O484        O  0.13959387  0.58080459  0.21102994    -0.59260
Tb485      Tb  0.44790752  0.50762763  0.23441026     1.78060
O486        O  0.05857937  0.94475630  0.23625010    -0.59760
O487        O  0.43835991  0.93260682  0.26757985    -0.78560
O488        O  0.01731583  0.58627191  0.24417619    -0.77880
O489        O  0.46775855  0.49728140  0.31037264    -0.63150
C490        C  0.45494530  0.91155981  0.24988472     0.91140
O491        O  0.03568960  0.51994655  0.15077217    -0.75100
C492        C  0.08496127  0.45401583  0.20219100     0.74580
C493        C  0.35758740  0.94415542  0.20765019     0.75560
O494        O  0.40975507  0.53591998  0.27378199    -0.60340
O495        O  0.36871222  0.95459523  0.24902198    -0.52290
O496        O  0.04014272  0.52167426  0.30563371    -0.78350
O497        O  0.46722676  0.50616631  0.15529084    -0.62350
C498        C  0.50001171  0.51148521  0.13185980     0.89360
C499        C  0.50463523  0.50972520  0.32938757     0.90590
C500        C  0.15177602  0.58443283  0.25252753     0.74930
O501        O  0.10073740  0.49726956  0.18058498    -0.51680
O502        O  0.11864748  0.05822664  0.28209010    -0.52830
O503        O  0.49401001  0.93718874  0.22904032    -0.65680
O504        O  0.06617926  0.59290569  0.19371983    -0.66820
C505        C  0.07653192  0.67060685  0.21327382    -0.06840
C506        C  0.07189754  0.69062919  0.25218870    -0.17970
C507        C  0.09465098  0.74310992  0.25520165     0.10360
C508        C  0.12722881  0.77942415  0.21849416    -0.06760
C509        C  0.12519571  0.75858015  0.17612456    -0.18000
C510        C  0.10264404  0.70515810  0.17411854     0.10390
S511        S  0.07219218  0.75470464  0.30496458    -0.32960
S512        S  0.11178290  0.68363993  0.12264965    -0.32970
H513        H  0.06560953  0.64246494  0.12027063     0.28400
H514        H  0.07644409  0.79959164  0.29094633     0.28390
H515        H  0.04854997  0.66442844  0.28078885     0.18990
H516        H  0.14587265  0.78432376  0.14601513     0.18990
C517        C  0.13604059  0.86204068  0.19549002    -0.06840
C518        C  0.08955298  0.83851115  0.20788978    -0.17970
C519        C  0.07079094  0.86643011  0.20848869     0.10360
C520        C  0.09718898  0.91849166  0.19059820    -0.06760
C521        C  0.13746444  0.93664025  0.16414359    -0.18000
C522        C  0.15538596  0.90726452  0.16384962     0.10390
S523        S  0.01431867  0.83539777  0.23481055    -0.32960
S524        S  0.19455595  0.92347908  0.11577440    -0.32970
H525        H  0.18373438  0.87382395  0.11576793     0.28400
H526        H  0.00916823  0.79092144  0.25510462     0.28390
H527        H  0.06761507  0.79825815  0.21864106     0.18990
H528        H  0.15530664  0.97379878  0.14417074     0.18990
C529        C  0.21198212  0.86330909  0.20160123    -0.06840
C530        C  0.24293841  0.91762774  0.19919025    -0.17970
C531        C  0.29013133  0.94404038  0.19298899     0.10360
C532        C  0.30974979  0.91743911  0.19450701    -0.06760
C533        C  0.28151270  0.86431681  0.19568584    -0.18000
C534        C  0.23350537  0.83657454  0.19892687     0.10390
S535        S  0.32594221  0.51277993  0.18750691    -0.32960
S536        S  0.20586017  0.76828265  0.21060599    -0.32970
H537        H  0.23551759  0.76585627  0.18136467     0.28400
H538        H  0.31937381  0.51324306  0.23549599     0.28390
H539        H  0.23091078  0.94073914  0.20384416     0.18990
H540        H  0.29735477  0.84409376  0.19861594     0.18990
C541        C  0.12876684  0.77570117  0.44380813    -0.06840
C542        C  0.11238236  0.74103471  0.40882230    -0.17970
C543        C  0.08871546  0.68831603  0.41818111     0.10360
C544        C  0.07689290  0.66610825  0.46418588    -0.06760
C545        C  0.09139235  0.69863636  0.00032669    -0.18000
C546        C  0.11728151  0.75273447  0.99088511     0.10390
S547        S  0.07709604  0.65126512  0.36933347    -0.32960
S548        S  0.13269743  0.79091304  0.03958987    -0.32970
H549        H  0.15713282  0.77287686  0.05963950     0.28400
H550        H  0.09302707  0.62394735  0.39092842     0.28390
H551        H  0.11898548  0.75372538  0.37276485     0.18990
H552        H  0.08093809  0.68163063  0.03578673     0.18990
C553        C  0.13602336  0.86286212  0.44319757    -0.06840
C554        C  0.15957444  0.91570123  0.42627641    -0.17970
C555        C  0.14141417  0.94369333  0.42820562     0.10360
C556        C  0.10037599  0.92190233  0.45402024    -0.06760
C557        C  0.07582182  0.87018226  0.47132242    -0.18000
C558        C  0.09039089  0.83922955  0.46184618     0.10390
S559        S  0.17105723  0.50455939  0.39268041    -0.32960
S560        S  0.04572843  0.77114290  0.46610591    -0.32970
H561        H  0.00944976  0.77540466  0.45838509     0.28540
H562        H  0.16060283  0.53098548  0.41973973     0.28390
H563        H  0.19144230  0.93460124  0.40605640     0.18990
H564        H  0.04276667  0.85269799  0.48869278     0.18990
C565        C  0.20697946  0.86119926  0.45477981    -0.06840
C566        C  0.22311318  0.83216243  0.47318699    -0.17970
C567        C  0.26954862  0.85561662  0.48107608     0.10360
C568        C  0.30158287  0.90744690  0.46433715    -0.06760
C569        C  0.28547468  0.93645795  0.44925678    -0.18000
C570        C  0.23924658  0.91521646  0.45495026     0.10390
S571        S  0.28587868  0.81713641  0.50973157    -0.32960
S572        S  0.23046971  0.95067597  0.99365627    -0.32970
H573        H  0.19032854  0.90725775  0.51593555     0.28400
H574        H  0.30740083  0.84970843  0.54556139     0.28390
H575        H  0.20110554  0.79085252  0.47863379     0.18990
H576        H  0.30945941  0.97791210  0.44379806     0.18990
C577        C  0.16957158  0.85041215  0.27366378    -0.06840
C578        C  0.18991662  0.83036696  0.30060992    -0.17970
C579        C  0.19376587  0.83207980  0.34926446     0.10360
C580        C  0.16932278  0.84607982  0.37494331    -0.06760
C581        C  0.14773613  0.86381391  0.34672110    -0.18000
C582        C  0.15659751  0.87637805  0.29907579     0.10390
S583        S  0.22199299  0.80547842  0.37602077    -0.32960
S584        S  0.15192247  0.92713363  0.27805678    -0.32970
H585        H  0.18886629  0.95058116  0.24620073     0.28400
H586        H  0.20780175  0.76799857  0.34476377     0.28390
H587        H  0.20259270  0.81209725  0.28394350     0.18990
H588        H  0.12266164  0.86833769  0.36035722     0.18990
C589        C  0.19986685  0.60789064  0.26283857    -0.06840
C590        C  0.21689361  0.58174979  0.24837717    -0.17970
C591        C  0.26338683  0.60552011  0.24152556     0.10360
C592        C  0.29605158  0.65835163  0.24967697    -0.06760
C593        C  0.27798408  0.68229459  0.27027033    -0.18000
C594        C  0.23049576  0.65762678  0.27675691     0.10390
S595        S  0.27674717  0.56547334  0.21843501    -0.32960
S596        S  0.21115841  0.69243721  0.30039996    -0.32970
H597        H  0.16701296  0.64948793  0.31457138     0.28400
H598        H  0.25516603  0.52809374  0.25666688     0.28390
H599        H  0.19322428  0.54295014  0.23853819     0.18990
H600        H  0.29984558  0.72165545  0.27819345     0.18990
C601        C  0.37755175  0.74877869  0.23524697    -0.06840
C602        C  0.38463157  0.76619843  0.28032941    -0.17970
C603        C  0.41083263  0.81888218  0.28700922     0.10360
C604        C  0.42684008  0.85546007  0.24797544    -0.06760
C605        C  0.42232406  0.83918930  0.20372988    -0.18000
C606        C  0.40361338  0.78824616  0.19744330     0.10390
S607        S  0.42724627  0.83678998  0.34521425    -0.32960
S608        S  0.42643048  0.78120288  0.14522070    -0.32970
H609        H  0.42802509  0.81980080  0.11638015     0.28400
H610        H  0.46713366  0.88603699  0.33287137     0.28390
H611        H  0.37103768  0.73863981  0.31072051     0.18990
H612        H  0.43896711  0.86797914  0.17416243     0.18990
C613        C  0.41492741  0.61462504  0.25673246    -0.06840
C614        C  0.37697408  0.59820746  0.28620931    -0.17970
C615        C  0.35778764  0.62592482  0.28614303     0.10360
C616        C  0.37481611  0.66942284  0.25310044    -0.06760
C617        C  0.41947965  0.69211331  0.23425165    -0.18000
C618        C  0.43838411  0.66448987  0.23345127     0.10390
S619        S  0.31392623  0.60418615  0.33051074    -0.32960
S620        S  0.49048444  0.69401470  0.19879209    -0.32970
H621        H  0.46999482  0.65873337  0.16495203     0.28400
H622        H  0.32485833  0.65315804  0.33541696     0.28390
H623        H  0.36109143  0.56260270  0.30846988     0.18990
H624        H  0.43702943  0.72833950  0.21349263     0.18990
C625        C  0.29147018  0.65415510  0.00842080    -0.06840
C626        C  0.26930675  0.67796341  0.01793013    -0.17970
C627        C  0.22199650  0.65214160  0.01827464     0.10360
C628        C  0.19469423  0.60063774  0.00937741    -0.06760
C629        C  0.21499968  0.57685618  0.49775056    -0.18000
C630        C  0.26209853  0.60501321  0.49046076     0.10390
S631        S  0.19822865  0.68661844  0.03081535    -0.32960
S632        S  0.27828706  0.58303888  0.44434751    -0.32970
H633        H  0.30575581  0.63249657  0.42144464     0.28400
H634        H  0.15632167  0.64392275  0.05083886     0.28390
H635        H  0.28810760  0.71808808  0.02255777     0.18990
H636        H  0.19383441  0.53790549  0.48799658     0.18990
C637        C  0.37569570  0.73748286  0.50206450    -0.06840
C638        C  0.36007341  0.75979535  0.47049933    -0.17970
C639        C  0.38265349  0.81297112  0.46291991     0.10360
C640        C  0.42326509  0.84558849  0.48582886    -0.06760
C641        C  0.44269190  0.82443822  0.01101134    -0.18000
C642        C  0.42067703  0.77167447  0.01816446     0.10390
S643        S  0.35791184  0.83603642  0.42315832    -0.32960
S644        S  0.45342591  0.75128923  0.04511861    -0.32970
H645        H  0.49005780  0.79827474  0.05970581     0.28400
H646        H  0.39916795  0.88234003  0.40690133     0.28390
H647        H  0.32970676  0.73591736  0.45148411     0.18990
H648        H  0.47538271  0.84976082  0.02599348     0.18990
C649        C  0.35825726  0.64702014  0.50291279    -0.06840
C650        C  0.33583944  0.59636699  0.02477268    -0.17970
C651        C  0.35203247  0.56686080  0.01931153     0.10360
C652        C  0.39019304  0.58677220  0.48892657    -0.06760
C653        C  0.40758703  0.63238821  0.46069705    -0.18000
C654        C  0.39182278  0.66249463  0.46633430     0.10390
S655        S  0.32682954  0.50886076  0.05817647    -0.32960
S656        S  0.41531832  0.71708574  0.42342598    -0.32970
H657        H  0.37332016  0.70782891  0.41266567     0.28400
H658        H  0.33512648  0.48246660  0.02871364     0.28390
H659        H  0.30788075  0.58154039  0.05018017     0.18990
H660        H  0.43487721  0.64558851  0.43487315     0.18990
C661        C  0.34103175  0.68091788  0.17695870    -0.06840
C662        C  0.35635006  0.65491962  0.15646110    -0.17970
C663        C  0.36283558  0.65659073  0.10860042     0.10360
C664        C  0.34609033  0.67895078  0.07654417    -0.06760
C665        C  0.32979186  0.70377094  0.09823882    -0.18000
C666        C  0.32274965  0.70090280  0.14622587     0.10390
S667        S  0.39968874  0.63563836  0.09995790    -0.32960
S668        S  0.28992086  0.72396476  0.16331509    -0.32970
H669        H  0.31948711  0.75861796  0.19444038     0.28400
H670        H  0.41892348  0.65609538  0.05525867     0.28390
H671        H  0.36487593  0.63304883  0.17827468     0.18990
H672        H  0.32568978  0.73017715  0.07835492     0.18990
C673        C  0.34348886  0.67955119  0.52117143    -0.03200
C674        C  0.34698139  0.68920921  0.73007163    -0.03200
C675        C  0.15970511  0.83576012  0.93013612    -0.03200
C676        C  0.16127532  0.83924617  0.72082436    -0.03200
C677        C  0.41282135  0.56138024  0.98578032     0.75740
Tb678      Tb  0.05415984  0.51291159  0.98368347     1.80740
O679        O  0.42462532  0.55553183  0.94716523    -0.52280
O680        O  0.37903963  0.96959185  0.93589419    -0.59730
C681        C  0.04817059  0.60934599  0.97347184     0.91550
O682        O  0.13013078  0.58355289  0.46767957    -0.59260
Tb683      Tb  0.44560551  0.50295707  0.97764988     1.78060
O684        O  0.06793663  0.95079900  0.00349310    -0.59760
O685        O  0.42503135  0.92019763  0.98236556    -0.78560
O686        O  0.01239552  0.58273939  0.95094749    -0.77880
O687        O  0.46837399  0.51024705  0.55683642    -0.63150
C688        C  0.44753022  0.90154247  0.98441952     0.91140
O689        O  0.04081505  0.52359454  0.90354327    -0.75100
C690        C  0.08220587  0.45142664  0.96328376     0.74580
C691        C  0.35148856  0.93544228  0.96718121     0.75560
O692        O  0.42069799  0.54179075  0.52079979    -0.60340
O693        O  0.37087746  0.93264817  0.50277314    -0.52290
O694        O  0.02658687  0.50322742  0.56042723    -0.78350
O695        O  0.46829266  0.49746927  0.90284918    -0.62350
C696        C  0.50491005  0.51007540  0.88171725     0.89360
C697        C  0.49770115  0.50784923  0.57995849     0.90590
C698        C  0.14593821  0.57332209  0.50257328     0.74930
O699        O  0.08059290  0.48088260  0.93273537    -0.51680
O700        O  0.11626165  0.03478166  0.52896256    -0.52830
O701        O  0.49038917  0.92868854  0.98677218    -0.65680
O702        O  0.06124855  0.58777046  0.00054768    -0.66820
C703        C  0.42757717  0.57856721  0.75001426     0.75740
Tb704      Tb  0.06112436  0.52021723  0.72648057     1.80740
O705        O  0.45539805  0.58565685  0.71861936    -0.52280
O706        O  0.39134694  0.96345934  0.67917797    -0.59730
C707        C  0.05170463  0.61360620  0.71593367     0.91550
O708        O  0.13958921  0.58076610  0.71098951    -0.59260
Tb709      Tb  0.44791841  0.50763505  0.73442142     1.78060
O710        O  0.05857562  0.94474436  0.73623429    -0.59760
O711        O  0.43836743  0.93261047  0.76759157    -0.78560
O712        O  0.01733336  0.58626868  0.74418983    -0.77880
O713        O  0.46779549  0.49729788  0.81037313    -0.63150
C714        C  0.45494166  0.91155743  0.74988310     0.91140
O715        O  0.03565283  0.51990655  0.65075116    -0.75100
C716        C  0.08495740  0.45399951  0.70217685     0.74580
C717        C  0.35759687  0.94415251  0.70767075     0.75560
O718        O  0.40977509  0.53593890  0.77379136    -0.60340
O719        O  0.36872337  0.95469193  0.74902433    -0.52290
O720        O  0.04016698  0.52165187  0.80561834    -0.78350
O721        O  0.46722226  0.50620476  0.65528702    -0.62350
C722        C  0.49998386  0.51148284  0.63184747     0.89360
C723        C  0.50467097  0.50972251  0.82937982     0.90590
C724        C  0.15177142  0.58443100  0.75248911     0.74930
O725        O  0.10073149  0.49724979  0.68056392    -0.51680
O726        O  0.11864282  0.05825730  0.78205539    -0.52830
O727        O  0.49399907  0.93718162  0.72902376    -0.65680
O728        O  0.06617313  0.59289770  0.69370463    -0.66820
C729        C  0.07654170  0.67060264  0.71327924    -0.06840
C730        C  0.07192385  0.69062626  0.75220332    -0.17970
C731        C  0.09468126  0.74310767  0.75521745     0.10360
C732        C  0.12724515  0.77942086  0.71850013    -0.06760
C733        C  0.12519489  0.75857505  0.67612636    -0.18000
C734        C  0.10264032  0.70515294  0.67411881     0.10390
S735        S  0.07225105  0.75470705  0.80500171    -0.32960
S736        S  0.11175835  0.68363285  0.62263911    -0.32970
H737        H  0.06558178  0.64246158  0.62027288     0.28400
H738        H  0.07645872  0.79956698  0.79097033     0.28390
H739        H  0.04859047  0.66442668  0.78081289     0.18990
H740        H  0.14586083  0.78431772  0.64601189     0.18990
C741        C  0.13605014  0.86203362  0.69549551    -0.06840
C742        C  0.08956369  0.83850305  0.70790524    -0.17970
C743        C  0.07079552  0.86641703  0.70849284     0.10360
C744        C  0.09718908  0.91847600  0.69059400    -0.06760
C745        C  0.13746454  0.93662478  0.66414002    -0.18000
C746        C  0.15539031  0.90725345  0.66385052     0.10390
S747        S  0.01431977  0.83538221  0.73480770    -0.32960
S748        S  0.19456812  0.92347574  0.61578126    -0.32970
H749        H  0.18374113  0.87381905  0.61576494     0.28400
H750        H  0.00917388  0.79091188  0.75511287     0.28390
H751        H  0.06763088  0.79825261  0.71866932     0.18990
H752        H  0.15530384  0.97378109  0.64416347     0.18990
C753        C  0.21199569  0.86331085  0.70158998    -0.06840
C754        C  0.24295072  0.91762855  0.69919669    -0.17970
C755        C  0.29014444  0.94404245  0.69300999     0.10360
C756        C  0.30976332  0.91744196  0.69451316    -0.06760
C757        C  0.28152767  0.86432217  0.69565762    -0.18000
C758        C  0.23351973  0.83657925  0.69889648     0.10390
S759        S  0.32595608  0.51278169  0.68755639    -0.32960
S760        S  0.20587650  0.76828756  0.71056261    -0.32970
H761        H  0.23551752  0.76586973  0.68128623     0.28400
H762        H  0.31932388  0.51321992  0.73553601     0.28390
H763        H  0.23092016  0.94073600  0.70385950     0.18990
H764        H  0.29736921  0.84409813  0.69857296     0.18990
C765        C  0.12884544  0.77571697  0.94379745    -0.06840
C766        C  0.11248824  0.74104979  0.90881296    -0.17970
C767        C  0.08882399  0.68833135  0.91817664     0.10360
C768        C  0.07698006  0.66612657  0.96418193    -0.06760
C769        C  0.09132191  0.69861732  0.50033369    -0.18000
C770        C  0.11721276  0.75271669  0.49089500     0.10390
S771        S  0.07722586  0.65127613  0.86933568    -0.32960
S772        S  0.13264142  0.79089395  0.53960226    -0.32970
H773        H  0.15709241  0.77286855  0.55963065     0.28400
H774        H  0.09307908  0.62389515  0.89097326     0.28390
H775        H  0.11910677  0.75373668  0.87275422     0.18990
H776        H  0.08087975  0.68161021  0.53579427     0.18990
C777        C  0.13608352  0.86286823  0.94319727    -0.06840
C778        C  0.15962905  0.91570844  0.92628118    -0.17970
C779        C  0.14145916  0.94369131  0.92820903     0.10360
C780        C  0.10041421  0.92188784  0.95401363    -0.06760
C781        C  0.07586572  0.87016751  0.97131220    -0.18000
C782        C  0.09044509  0.83922405  0.96183542     0.10390
S783        S  0.17110354  0.50456850  0.89270192    -0.32960
S784        S  0.04578937  0.77113518  0.96607265    -0.32970
H785        H  0.00949583  0.77538283  0.95841669     0.28540
H786        H  0.16058026  0.53095361  0.91973392     0.28390
H787        H  0.19149886  0.93461557  0.90606328     0.18990
H788        H  0.04280815  0.85267730  0.98867962     0.18990
C789        C  0.20704809  0.86121686  0.95477333    -0.06840
C790        C  0.22318036  0.83217989  0.97318845    -0.17970
C791        C  0.26961492  0.85563401  0.98108438     0.10360
C792        C  0.30165000  0.90746404  0.96434639    -0.06760
C793        C  0.28554264  0.93647322  0.94925388    -0.18000
C794        C  0.23931492  0.91523375  0.95494114     0.10390
S795        S  0.28594376  0.81715265  0.00974033    -0.32960
S796        S  0.23040050  0.95065743  0.49366652    -0.32970
H797        H  0.19040166  0.90727593  0.01593046     0.28400
H798        H  0.30746678  0.84972546  0.04556954     0.28390
H799        H  0.20117386  0.79086998  0.97863408     0.18990
H800        H  0.30952719  0.97792714  0.94379058     0.18990
C801        C  0.16959997  0.85041849  0.77365923    -0.06840
C802        C  0.18996973  0.83039623  0.80059487    -0.17970
C803        C  0.19384193  0.83212751  0.84924670     0.10360
C804        C  0.16938469  0.84610278  0.87493552    -0.06760
C805        C  0.14777777  0.86381850  0.84672352    -0.18000
C806        C  0.15662202  0.87637706  0.79907681     0.10390
S807        S  0.22212551  0.80559041  0.87599542    -0.32960
S808        S  0.15191949  0.92711431  0.77806363    -0.32970
H809        H  0.18885580  0.95057213  0.74619599     0.28400
H810        H  0.20808532  0.76820629  0.84467224     0.28390
H811        H  0.20265096  0.81213630  0.78391944     0.18990
H812        H  0.12269895  0.86833063  0.86036881     0.18990
C813        C  0.19986100  0.60788978  0.76280697    -0.06840
C814        C  0.21688974  0.58175085  0.74834661    -0.17970
C815        C  0.26338297  0.60552138  0.74150169     0.10360
C816        C  0.29604608  0.65835024  0.74966170    -0.06760
C817        C  0.27797672  0.68228813  0.77026148    -0.18000
C818        C  0.23048703  0.65762084  0.77673823     0.10390
S819        S  0.27674595  0.56548002  0.71840475    -0.32960
S820        S  0.21114493  0.69242765  0.80037893    -0.32970
H821        H  0.16700157  0.64947599  0.81455221     0.28400
H822        H  0.25515703  0.52809182  0.75662934     0.28390
H823        H  0.19322231  0.54295304  0.73850221     0.18990
H824        H  0.29983898  0.72164570  0.77819489     0.18990
C825        C  0.37754493  0.74877864  0.73523469    -0.06840
C826        C  0.38463444  0.76619415  0.78031908    -0.17970
C827        C  0.41084237  0.81887721  0.78700198     0.10360
C828        C  0.42683099  0.85545738  0.74797182    -0.06760
C829        C  0.42230183  0.83918940  0.70372276    -0.18000
C830        C  0.40359827  0.78824921  0.69743138     0.10390
S831        S  0.42730281  0.83677869  0.84519933    -0.32960
S832        S  0.42641714  0.78121507  0.64520452    -0.32970
H833        H  0.42800736  0.81981248  0.61636782     0.28400
H834        H  0.46717793  0.88603146  0.83284273     0.28390
H835        H  0.37105081  0.73863340  0.81070835     0.18990
H836        H  0.43893427  0.86798049  0.67415504     0.18990
C837        C  0.41493334  0.61463346  0.75672214    -0.06840
C838        C  0.37697818  0.59821501  0.78619611    -0.17970
C839        C  0.35778575  0.62592653  0.78612244     0.10360
C840        C  0.37481089  0.66942146  0.75307599    -0.06760
C841        C  0.41947422  0.69211242  0.73422461    -0.18000
C842        C  0.43838504  0.66449429  0.73343429     0.10390
S843        S  0.31391807  0.60418085  0.83048480    -0.32960
S844        S  0.49049087  0.69401951  0.69878497    -0.32970
H845        H  0.46999707  0.65875058  0.66493407     0.28400
H846        H  0.32485155  0.65315186  0.83539983     0.28390
H847        H  0.36109826  0.56261293  0.80846027     0.18990
H848        H  0.43702087  0.72833583  0.71346065     0.18990
C849        C  0.29140816  0.65414805  0.50842731    -0.06840
C850        C  0.26924584  0.67795541  0.51794653    -0.17970
C851        C  0.22193442  0.65213335  0.51829759     0.10360
C852        C  0.19462862  0.60062793  0.50940367    -0.06760
C853        C  0.21506685  0.57686859  0.99772197    -0.18000
C854        C  0.26216650  0.60502430  0.99044558     0.10390
S855        S  0.19816939  0.68661272  0.53083932    -0.32960
S856        S  0.27836737  0.58305047  0.94434275    -0.32970
H857        H  0.30585949  0.63251148  0.92145175     0.28400
H858        H  0.15625933  0.64391700  0.55085689     0.28390
H859        H  0.28804817  0.71808049  0.52257235     0.18990
H860        H  0.19390356  0.53792042  0.98796201     0.18990
C861        C  0.37575660  0.73748465  0.00209411    -0.06840
C862        C  0.36014899  0.75980496  0.97052057    -0.17970
C863        C  0.38273164  0.81298032  0.96294576     0.10360
C864        C  0.42333310  0.84559526  0.98587821    -0.06760
C865        C  0.44264011  0.82444626  0.51094736    -0.18000
C866        C  0.42062441  0.77168207  0.51811715     0.10390
S867        S  0.35798824  0.83603289  0.92316976    -0.32960
S868        S  0.45337989  0.75130911  0.54507507    -0.32970
H869        H  0.48999569  0.79829640  0.55967615     0.28400
H870        H  0.39925536  0.88226866  0.90681520     0.28390
H871        H  0.32979151  0.73593170  0.95149137     0.18990
H872        H  0.47533905  0.84978456  0.52591049     0.18990
C873        C  0.35832099  0.64702941  0.00293139    -0.06840
C874        C  0.33577920  0.59636175  0.52476439    -0.17970
C875        C  0.35196826  0.56685140  0.51930406     0.10360
C876        C  0.39026457  0.58679100  0.98894216    -0.06760
C877        C  0.40766459  0.63241357  0.96072241    -0.18000
C878        C  0.39189649  0.66251525  0.96636018     0.10390
S879        S  0.32677255  0.50885983  0.55817977    -0.32960
S880        S  0.41540014  0.71711395  0.92345862    -0.32970
H881        H  0.37340455  0.70785462  0.91268076     0.28400
H882        H  0.33506050  0.48245688  0.52871783     0.28390
H883        H  0.30782776  0.58154279  0.55017937     0.18990
H884        H  0.43496113  0.64562145  0.93490425     0.18990
C885        C  0.34102174  0.68092762  0.67694100    -0.06840
C886        C  0.35634082  0.65493526  0.65643371    -0.17970
C887        C  0.36281630  0.65660780  0.60857133     0.10360
C888        C  0.34605873  0.67896201  0.57652518    -0.06760
C889        C  0.32976690  0.70378335  0.59822851    -0.18000
C890        C  0.32273435  0.70091409  0.64621723     0.10390
S891        S  0.39967678  0.63566784  0.59991183    -0.32960
S892        S  0.28990783  0.72397457  0.66331884    -0.32970
H893        H  0.31947309  0.75861963  0.69444975     0.28400
H894        H  0.41889092  0.65611688  0.55520486     0.28390
H895        H  0.36487414  0.63306699  0.67823991     0.18990
H896        H  0.32565930  0.73018732  0.57834889     0.18990
C897        C  0.84354335  0.17955193  0.02118773    -0.03200
C898        C  0.84698760  0.18920748  0.23008852    -0.03200
C899        C  0.65963674  0.33574394  0.43014333    -0.03200
C900        C  0.66125948  0.33924827  0.22082570    -0.03200
C901        C  0.91275008  0.06135980  0.48577081     0.75740
Tb902      Tb  0.55410120  0.01291211  0.48366555     1.80740
O903        O  0.92453950  0.05548965  0.44715873    -0.52280
O904        O  0.87897874  0.46955251  0.43587752    -0.59730
C905        C  0.54809039  0.10932595  0.47347232     0.91550
O906        O  0.63018413  0.08355700  0.96767735    -0.59260
Tb907      Tb  0.94553689  0.00293346  0.47765812     1.78060
O908        O  0.56781817  0.45074900  0.50347333    -0.59760
O909        O  0.92491338  0.42014260  0.48263633    -0.78560
O910        O  0.51232170  0.08271305  0.45094053    -0.77880
O911        O  0.96838177  0.01017650  0.05684625    -0.63150
C912        C  0.94744514  0.40152635  0.48437987     0.91140
O913        O  0.54079714  0.02368996  0.40354071    -0.75100
C914        C  0.58217072  0.95144607  0.46328410     0.74580
C915        C  0.85142088  0.43542304  0.46717403     0.75560
O916        O  0.92075428  0.04179119  0.02080507    -0.60340
O917        O  0.87095238  0.43264953  0.00276666    -0.52290
O918        O  0.52669525  0.00333373  0.06044156    -0.78350
O919        O  0.96822028  0.99737418  0.40287098    -0.62350
C920        C  0.00486608  0.01007523  0.38172560     0.89360
C921        C  0.99775023  0.00786151  0.07997026     0.90590
C922        C  0.64600321  0.07332674  0.00255927     0.74930
O923        O  0.58063265  0.98096615  0.43274799    -0.51680
O924        O  0.61633629  0.53478420  0.02895132    -0.52830
O925        O  0.99032925  0.42870332  0.48645779    -0.65680
O926        O  0.56116685  0.08775288  0.50055383    -0.66820
C927        C  0.92756600  0.07855609  0.25001693     0.75740
Tb928      Tb  0.56112940  0.02023017  0.22650986     1.80740
O929        O  0.95539454  0.08565417  0.21862784    -0.52280
O930        O  0.89133939  0.46356585  0.17913815    -0.59730
C931        C  0.55169739  0.11361076  0.21593192     0.91550
O932        O  0.63959385  0.08080465  0.21102996    -0.59260
Tb933      Tb  0.94790754  0.00762761  0.23441030     1.78060
O934        O  0.55857937  0.44475639  0.23625013    -0.59760
O935        O  0.93835973  0.43260673  0.26757964    -0.78560
O936        O  0.51731576  0.08627197  0.24417606    -0.77880
O937        O  0.96775860  0.99728144  0.31037267    -0.63150
C938        C  0.95494525  0.41155975  0.24988474     0.91140
O939        O  0.53568963  0.01994663  0.15077221    -0.75100
C940        C  0.58496129  0.95401587  0.20219107     0.74580
C941        C  0.85758742  0.44415555  0.20765015     0.75560
O942        O  0.90975509  0.03591996  0.27378204    -0.60340
O943        O  0.86871225  0.45459492  0.24902202    -0.52290
O944        O  0.54014272  0.02167429  0.30563376    -0.78350
O945        O  0.96722676  0.00616627  0.15529089    -0.62350
C946        C  0.00001171  0.01148517  0.13185985     0.89360
C947        C  0.00463528  0.00972519  0.32938759     0.90590
C948        C  0.65177603  0.08443283  0.25252753     0.74930
O949        O  0.60073739  0.99726959  0.18058503    -0.51680
O950        O  0.61864745  0.55822674  0.28209006    -0.52830
O951        O  0.99401006  0.43718867  0.22904055    -0.65680
O952        O  0.56617932  0.09290574  0.19371988    -0.66820
C953        C  0.57653194  0.17060690  0.21327379    -0.06840
C954        C  0.57189745  0.19062922  0.25218861    -0.17970
C955        C  0.59465089  0.24310995  0.25520158     0.10360
C956        C  0.62722880  0.27942420  0.21849416    -0.06760
C957        C  0.62519581  0.25858022  0.17612457    -0.18000
C958        C  0.60264417  0.20515817  0.17411855     0.10390
S959        S  0.57219197  0.25470463  0.30496444    -0.32960
S960        S  0.61178325  0.18364004  0.12264977    -0.32970
H961        H  0.56560990  0.14246504  0.12027059     0.28400
H962        H  0.57644418  0.29959182  0.29094634     0.28390
H963        H  0.54854980  0.16442846  0.28078871     0.18990
H964        H  0.64587282  0.28432384  0.14601518     0.18990
C965        C  0.63604057  0.36204072  0.19549008    -0.06840
C966        C  0.58955297  0.33851120  0.20788983    -0.17970
C967        C  0.57079095  0.36643018  0.20848879     0.10360
C968        C  0.59718898  0.41849172  0.19059827    -0.06760
C969        C  0.63746442  0.43664029  0.16414364    -0.18000
C970        C  0.65538593  0.40726455  0.16384966     0.10390
S971        S  0.51431870  0.33539786  0.23481072    -0.32960
S972        S  0.69455586  0.42347905  0.11577440    -0.32970
H973        H  0.68373432  0.37382392  0.11576800     0.28400
H974        H  0.50916825  0.29092151  0.25510473     0.28390
H975        H  0.56761504  0.29825819  0.21864106     0.18990
H976        H  0.65530661  0.47379880  0.14417076     0.18990
C977        C  0.71198211  0.36330913  0.20160130    -0.06840
C978        C  0.74293839  0.41762779  0.19919023    -0.17970
C979        C  0.79013131  0.44404044  0.19298892     0.10360
C980        C  0.80974978  0.41743919  0.19450706    -0.06760
C981        C  0.78151271  0.36431688  0.19568605    -0.18000
C982        C  0.73350539  0.33657459  0.19892705     0.10390
S983        S  0.82594225  0.01277994  0.18750695    -0.32960
S984        S  0.70586021  0.26828270  0.21060615    -0.32970
H985        H  0.73551772  0.26585635  0.18136496     0.28400
H986        H  0.81937377  0.01324309  0.23549601     0.28390
H987        H  0.73091076  0.44073920  0.20384407     0.18990
H988        H  0.79735480  0.34409385  0.19861624     0.18990
C989        C  0.62876677  0.27570116  0.44380824    -0.06840
C990        C  0.61238202  0.24103470  0.40882241    -0.17970
C991        C  0.58871513  0.18831602  0.41818119     0.10360
C992        C  0.57689283  0.16610824  0.46418597    -0.06760
C993        C  0.59139251  0.19863635  0.00032680    -0.18000
C994        C  0.61728163  0.25273447  0.99088523     0.10390
S995        S  0.57709539  0.15126511  0.36933348    -0.32960
S996        S  0.63269773  0.29091303  0.03959001    -0.32970
H997        H  0.65713317  0.27287684  0.05963947     0.28400
H998        H  0.59302660  0.12394739  0.39092812     0.28390
H999        H  0.61898494  0.25372538  0.37276497     0.18990
H1000       H  0.58093844  0.18163062  0.03578685     0.18990
C1001       C  0.63602337  0.36286215  0.44319768    -0.06840
C1002       C  0.65957445  0.41570125  0.42627648    -0.17970
C1003       C  0.64141419  0.44369336  0.42820567     0.10360
C1004       C  0.60037604  0.42190240  0.45402032    -0.06760
C1005       C  0.57582189  0.37018236  0.47132259    -0.18000
C1006       C  0.59039094  0.33922962  0.46184639     0.10390
S1007       S  0.67105725  0.00455937  0.39268044    -0.32960
S1008       S  0.54572850  0.27114296  0.46610641    -0.32970
H1009       H  0.50944987  0.27540473  0.45838519     0.28540
H1010       H  0.66060288  0.03098550  0.41973975     0.28390
H1011       H  0.69144230  0.43460124  0.40605645     0.18990
H1012       H  0.54276676  0.35269811  0.48869299     0.18990
C1013       C  0.70697946  0.36119924  0.45477982    -0.06840
C1014       C  0.72311322  0.33216242  0.47318687    -0.17970
C1015       C  0.76954866  0.35561661  0.48107594     0.10360
C1016       C  0.80158289  0.40744692  0.46433709    -0.06760
C1017       C  0.78547467  0.43645797  0.44925682    -0.18000
C1018       C  0.73924656  0.41521644  0.45495033     0.10390
S1019       S  0.78587875  0.31713640  0.50973135    -0.32960
S1020       S  0.73046966  0.45067588  0.99365639    -0.32970
H1021       H  0.69032851  0.40725765  0.51593564     0.28400
H1022       H  0.80740090  0.34970836  0.54556120     0.28390
H1023       H  0.70110559  0.29085251  0.47863363     0.18990
H1024       H  0.80945939  0.47791213  0.44379815     0.18990
C1025       C  0.66957152  0.35041211  0.27366384    -0.06840
C1026       C  0.68991643  0.33036677  0.30060999    -0.17970
C1027       C  0.69376564  0.33207954  0.34926453     0.10360
C1028       C  0.66932270  0.34607976  0.37494338    -0.06760
C1029       C  0.64773614  0.36381395  0.34672117    -0.18000
C1030       C  0.65659754  0.37637810  0.29907585     0.10390
S1031       S  0.72199244  0.30547776  0.37602080    -0.32960
S1032       S  0.65192254  0.42713370  0.27805682    -0.32970
H1033       H  0.68886635  0.45058119  0.24620077     0.28400
H1034       H  0.70779999  0.26799715  0.34476434     0.28390
H1035       H  0.70259242  0.31209695  0.28394360     0.18990
H1036       H  0.62266169  0.36833780  0.36035729     0.18990
C1037       C  0.69986686  0.10789063  0.26283854    -0.06840
C1038       C  0.71689361  0.08174979  0.24837708    -0.17970
C1039       C  0.76338683  0.10552011  0.24152546     0.10360
C1040       C  0.79605159  0.15835161  0.24967691    -0.06760
C1041       C  0.77798410  0.18229456  0.27027031    -0.18000
C1042       C  0.73049578  0.15762675  0.27675690     0.10390
S1043       S  0.77674715  0.06547334  0.21843486    -0.32960
S1044       S  0.71115846  0.19243718  0.30040001    -0.32970
H1045       H  0.66701300  0.14948791  0.31457141     0.28400
H1046       H  0.75516610  0.02809378  0.25666676     0.28390
H1047       H  0.69322428  0.04295015  0.23853808     0.18990
H1048       H  0.79984561  0.22165541  0.27819346     0.18990
C1049       C  0.87755177  0.24877866  0.23524695    -0.06840
C1050       C  0.88463160  0.26619838  0.28032940    -0.17970
C1051       C  0.91083266  0.31888211  0.28700923     0.10360
C1052       C  0.92684007  0.35546001  0.24797546    -0.06760
C1053       C  0.92232405  0.33918928  0.20372989    -0.18000
C1054       C  0.90361339  0.28824615  0.19744329     0.10390
S1055       S  0.92724636  0.33678989  0.34521426    -0.32960
S1056       S  0.92643052  0.28120289  0.14522070    -0.32970
H1057       H  0.92802516  0.31980085  0.11638015     0.28400
H1058       H  0.96713358  0.38603704  0.33287140     0.28390
H1059       H  0.87103774  0.23863974  0.31072049     0.18990
H1060       H  0.93896709  0.36797913  0.17416245     0.18990
C1061       C  0.91492742  0.11462500  0.25673248    -0.06840
C1062       C  0.87697406  0.09820741  0.28620931    -0.17970
C1063       C  0.85778761  0.12592476  0.28614299     0.10360
C1064       C  0.87481610  0.16942279  0.25310040    -0.06760
C1065       C  0.91947965  0.19211326  0.23425164    -0.18000
C1066       C  0.93838412  0.16448983  0.23345129     0.10390
S1067       S  0.81392616  0.10418607  0.33051067    -0.32960
S1068       S  0.99048447  0.19401468  0.19879216    -0.32970
H1069       H  0.96999487  0.15873338  0.16495206     0.28400
H1070       H  0.82485827  0.15315796  0.33541692     0.28390
H1071       H  0.86109140  0.06260265  0.30846987     0.18990
H1072       H  0.93702944  0.22833945  0.21349261     0.18990
C1073       C  0.79147021  0.15415512  0.00842076    -0.06840
C1074       C  0.76930679  0.17796344  0.01793009    -0.17970
C1075       C  0.72199654  0.15214162  0.01827463     0.10360
C1076       C  0.69469426  0.10063776  0.00937742    -0.06760
C1077       C  0.71499970  0.07685618  0.49775057    -0.18000
C1078       C  0.76209854  0.10501321  0.49046076     0.10390
S1079       S  0.69822869  0.18661848  0.03081534    -0.32960
S1080       S  0.77828706  0.08303883  0.44434752    -0.32970
H1081       H  0.80575580  0.13249651  0.42144461     0.28400
H1082       H  0.65632172  0.14392279  0.05083887     0.28390
H1083       H  0.78810764  0.21808811  0.02255771     0.18990
H1084       H  0.69383442  0.03790548  0.48799663     0.18990
C1085       C  0.87569572  0.23748288  0.50206442    -0.06840
C1086       C  0.86007342  0.25979535  0.47049924    -0.17970
C1087       C  0.88265350  0.31297112  0.46291981     0.10360
C1088       C  0.92326509  0.34558850  0.48582878    -0.06760
C1089       C  0.94269190  0.32443825  0.01101128    -0.18000
C1090       C  0.92067704  0.27167450  0.01816440     0.10390
S1091       S  0.85791187  0.33603640  0.42315815    -0.32960
S1092       S  0.95342596  0.25128930  0.04511854    -0.32970
H1093       H  0.99005781  0.29827480  0.05970576     0.28400
H1094       H  0.89916799  0.38234000  0.40690115     0.28390
H1095       H  0.82970678  0.23591735  0.45148403     0.18990
H1096       H  0.97538269  0.34976085  0.02599345     0.18990
C1097       C  0.85825729  0.14702015  0.50291274    -0.06840
C1098       C  0.83583948  0.09636703  0.02477266    -0.17970
C1099       C  0.85203252  0.06686083  0.01931152     0.10360
C1100       C  0.89019307  0.08677221  0.48892655    -0.06760
C1101       C  0.90758704  0.13238821  0.46069700    -0.18000
C1102       C  0.89182279  0.16249463  0.46633424     0.10390
S1103       S  0.82682960  0.00886082  0.05817649    -0.32960
S1104       S  0.91531830  0.21708571  0.42342590    -0.32970
H1105       H  0.87332013  0.20782886  0.41266561     0.28400
H1106       H  0.83512657  0.98246665  0.02871372     0.28390
H1107       H  0.80788080  0.08154043  0.05018015     0.18990
H1108       H  0.93487721  0.14558849  0.43487310     0.18990
C1109       C  0.84103179  0.18091788  0.17695865    -0.06840
C1110       C  0.85635012  0.15491965  0.15646104    -0.17970
C1111       C  0.86283565  0.15659078  0.10860035     0.10360
C1112       C  0.84609038  0.17895082  0.07654412    -0.06760
C1113       C  0.82979190  0.20377097  0.09823877    -0.18000
C1114       C  0.82274969  0.20090282  0.14622582     0.10390
S1115       S  0.89968884  0.13563846  0.09995783    -0.32960
S1116       S  0.78992090  0.22396477  0.16331504    -0.32970
H1117       H  0.81948710  0.25861791  0.19444040     0.28400
H1118       H  0.91892355  0.15609546  0.05525859     0.28390
H1119       H  0.86487599  0.13304885  0.17827461     0.18990
H1120       H  0.82568982  0.23017717  0.07835487     0.18990
C1121       C  0.84348890  0.17955121  0.52117138    -0.03200
C1122       C  0.84698140  0.18920918  0.73007159    -0.03200
C1123       C  0.65970507  0.33576010  0.93013621    -0.03200
C1124       C  0.66127530  0.33924620  0.72082440    -0.03200
C1125       C  0.91282140  0.06138027  0.98578031     0.75740
Tb1126     Tb  0.55415985  0.01291159  0.98368352     1.80740
O1127       O  0.92462538  0.05553188  0.94716522    -0.52280
O1128       O  0.87903964  0.46959194  0.93589415    -0.59730
C1129       C  0.54817057  0.10934597  0.97347193     0.91550
O1130       O  0.63013080  0.08355289  0.46767959    -0.59260
Tb1131     Tb  0.94560556  0.00295710  0.97764989     1.78060
O1132       O  0.56793649  0.45079896  0.00349309    -0.59760
O1133       O  0.92503136  0.42019768  0.98236530    -0.78560
O1134       O  0.51239548  0.08273935  0.95094761    -0.77880
O1135       O  0.96837393  0.01024688  0.55683647    -0.63150
C1136       C  0.94753022  0.40154250  0.98441943     0.91140
O1137       O  0.54081507  0.02359460  0.90354333    -0.75100
C1138       C  0.58220591  0.95142667  0.96328383     0.74580
C1139       C  0.85148858  0.43544232  0.96718114     0.75560
O1140       O  0.92069802  0.04179078  0.52079979    -0.60340
O1141       O  0.87087750  0.43264818  0.50277304    -0.52290
O1142       O  0.52658689  0.00322745  0.56042728    -0.78350
O1143       O  0.96829276  0.99746950  0.90284915    -0.62350
C1144       C  0.00491010  0.01007541  0.88171727     0.89360
C1145       C  0.99770118  0.00784921  0.57995854     0.90590
C1146       C  0.64593823  0.07332211  0.50257331     0.74930
O1147       O  0.58059295  0.98088263  0.93273545    -0.51680
O1148       O  0.61626161  0.53478172  0.52896252    -0.52830
O1149       O  0.99038915  0.42868855  0.98677226    -0.65680
O1150       O  0.56124858  0.08777047  0.00054773    -0.66820
C1151       C  0.92757718  0.07856716  0.75001429     0.75740
Tb1152     Tb  0.56112436  0.02021724  0.72648062     1.80740
O1153       O  0.95539806  0.08565681  0.71861939    -0.52280
O1154       O  0.89134696  0.46346002  0.67917780    -0.59730
C1155       C  0.55170464  0.11360626  0.71593361     0.91550
O1156       O  0.63958920  0.08076616  0.71098953    -0.59260
Tb1157     Tb  0.94791843  0.00763501  0.73442145     1.78060
O1158       O  0.55857563  0.44474446  0.73623433    -0.59760
O1159       O  0.93836721  0.43261037  0.76759132    -0.78560
O1160       O  0.51733328  0.08626875  0.74418966    -0.77880
O1161       O  0.96779555  0.99729791  0.81037316    -0.63150
C1162       C  0.95494160  0.41155737  0.74988313     0.91140
O1163       O  0.53565286  0.01990664  0.65075120    -0.75100
C1164       C  0.58495742  0.95399955  0.70217693     0.74580
C1165       C  0.85759689  0.44415267  0.70767071     0.75560
O1166       O  0.90977510  0.03593886  0.77379139    -0.60340
O1167       O  0.86872341  0.45469158  0.74902438    -0.52290
O1168       O  0.54016698  0.02165190  0.80561839    -0.78350
O1169       O  0.96722225  0.00620470  0.65528706    -0.62350
C1170       C  0.99998386  0.01148279  0.63184752     0.89360
C1171       C  0.00467102  0.00972250  0.82937985     0.90590
C1172       C  0.65177143  0.08443099  0.75248912     0.74930
O1173       O  0.60073149  0.99724981  0.68056398    -0.51680
O1174       O  0.61864279  0.55825741  0.78205536    -0.52830
O1175       O  0.99399913  0.43718155  0.72902402    -0.65680
O1176       O  0.56617321  0.09289775  0.69370467    -0.66820
C1177       C  0.57654172  0.17060270  0.71327919    -0.06840
C1178       C  0.57192377  0.19062629  0.75220321    -0.17970
C1179       C  0.59468117  0.24310770  0.75521736     0.10360
C1180       C  0.62724513  0.27942090  0.71850011    -0.06760
C1181       C  0.62519499  0.25857513  0.67612636    -0.18000
C1182       C  0.60264047  0.20515301  0.67411880     0.10390
S1183       S  0.57225082  0.25470704  0.80500154    -0.32960
S1184       S  0.61175873  0.18363298  0.62263921    -0.32970
H1185       H  0.56558219  0.14246169  0.62027282     0.28400
H1186       H  0.57645882  0.29956718  0.79097033     0.28390
H1187       H  0.54859029  0.16442669  0.78081271     0.18990
H1188       H  0.64586103  0.28431781  0.64601193     0.18990
C1189       C  0.63605012  0.36203366  0.69549556    -0.06840
C1190       C  0.58956367  0.33850310  0.70790529    -0.17970
C1191       C  0.57079553  0.36641711  0.70849294     0.10360
C1192       C  0.59718908  0.41847606  0.69059408    -0.06760
C1193       C  0.63746452  0.43662482  0.66414006    -0.18000
C1194       C  0.65539028  0.40725348  0.66385055     0.10390
S1195       S  0.51431981  0.33538231  0.73480789    -0.32960
S1196       S  0.69456801  0.42347568  0.61578125    -0.32970
H1197       H  0.68374105  0.37381901  0.61576500     0.28400
H1198       H  0.50917391  0.29091196  0.75511300     0.28390
H1199       H  0.56763084  0.29825266  0.71866932     0.18990
H1200       H  0.65530380  0.47378111  0.64416349     0.18990
C1201       C  0.71199568  0.36331090  0.70159005    -0.06840
C1202       C  0.74295069  0.41762861  0.69919665    -0.17970
C1203       C  0.79014442  0.44404253  0.69300990     0.10360
C1204       C  0.80976331  0.41744206  0.69451321    -0.06760
C1205       C  0.78152769  0.36432226  0.69565786    -0.18000
C1206       C  0.73351975  0.33657931  0.69889667     0.10390
S1207       S  0.82595613  0.01278168  0.68755649    -0.32960
S1208       S  0.70587654  0.26828762  0.71056279    -0.32970
H1209       H  0.73551767  0.26586983  0.68128655     0.28400
H1210       H  0.81932376  0.01321990  0.73553607     0.28390
H1211       H  0.73092014  0.44073607  0.70385938     0.18990
H1212       H  0.79736925  0.34409824  0.69857330     0.18990
C1213       C  0.62884536  0.27571696  0.94379757    -0.06840
C1214       C  0.61248787  0.24104977  0.90881308    -0.17970
C1215       C  0.58882363  0.18833133  0.91817672     0.10360
C1216       C  0.57697999  0.16612656  0.96418202    -0.06760
C1217       C  0.59132205  0.19861732  0.50033380    -0.18000
C1218       C  0.61721286  0.25271669  0.49089512     0.10390
S1219       S  0.57722516  0.15127612  0.86933568    -0.32960
S1220       S  0.63264169  0.29089395  0.53960240    -0.32970
H1221       H  0.65709273  0.27286856  0.55963063     0.28400
H1222       H  0.59307856  0.12389519  0.89097292     0.28390
H1223       H  0.61910617  0.25373669  0.87275434     0.18990
H1224       H  0.58088006  0.18161021  0.53579439     0.18990
C1225       C  0.63608353  0.36286826  0.94319738    -0.06840
C1226       C  0.65962907  0.41570846  0.92628126    -0.17970
C1227       C  0.64145919  0.44369134  0.92820908     0.10360
C1228       C  0.60041426  0.42188791  0.95401372    -0.06760
C1229       C  0.57586580  0.37016761  0.97131238    -0.18000
C1230       C  0.59044515  0.33922413  0.96183565     0.10390
S1231       S  0.67110356  0.00456849  0.89270196    -0.32960
S1232       S  0.54578944  0.27113525  0.96607321    -0.32970
H1233       H  0.50949595  0.27538290  0.95841682     0.28540
H1234       H  0.66058031  0.03095362  0.91973394     0.28390
H1235       H  0.69149887  0.43461556  0.90606334     0.18990
H1236       H  0.54280826  0.35267743  0.98867986     0.18990
C1237       C  0.70704809  0.36121683  0.95477333    -0.06840
C1238       C  0.72318041  0.33217987  0.97318831    -0.17970
C1239       C  0.76961497  0.35563400  0.98108422     0.10360
C1240       C  0.80165002  0.40746406  0.96434633    -0.06760
C1241       C  0.78554263  0.43647323  0.94925393    -0.18000
C1242       C  0.73931491  0.41523372  0.95494122     0.10390
S1243       S  0.78594384  0.31715262  0.00974009    -0.32960
S1244       S  0.73040047  0.45065737  0.49366662    -0.32970
H1245       H  0.69040162  0.40727580  0.01593056     0.28400
H1246       H  0.80746684  0.34972538  0.04556934     0.28390
H1247       H  0.70117393  0.29086995  0.97863388     0.18990
H1248       H  0.80952716  0.47792716  0.94379069     0.18990
C1249       C  0.66959991  0.35041845  0.77365929    -0.06840
C1250       C  0.68996952  0.33039602  0.80059494    -0.17970
C1251       C  0.69384168  0.33212722  0.84924678     0.10360
C1252       C  0.66938461  0.34610270  0.87493560    -0.06760
C1253       C  0.64777778  0.36381854  0.84672359    -0.18000
C1254       C  0.65662206  0.37637710  0.79907688     0.10390
S1255       S  0.72212490  0.30558968  0.87599544    -0.32960
S1256       S  0.65191958  0.42711439  0.77806368    -0.32970
H1257       H  0.68885587  0.45057216  0.74619603     0.28400
H1258       H  0.70808330  0.26820465  0.84467289     0.28390
H1259       H  0.70265064  0.31213597  0.78391955     0.18990
H1260       H  0.62269901  0.36833076  0.86036888     0.18990
C1261       C  0.69986102  0.10788977  0.76280693    -0.06840
C1262       C  0.71688974  0.08175084  0.74834651    -0.17970
C1263       C  0.76338297  0.10552137  0.74150157     0.10360
C1264       C  0.79604609  0.15835022  0.74966163    -0.06760
C1265       C  0.77797675  0.18228810  0.77026145    -0.18000
C1266       C  0.73048706  0.15762082  0.77673823     0.10390
S1267       S  0.77674594  0.06548003  0.71840457    -0.32960
S1268       S  0.71114499  0.19242762  0.80037899    -0.32970
H1269       H  0.66700161  0.14947597  0.81455223     0.28400
H1270       H  0.75515710  0.02809186  0.75662919     0.28390
H1271       H  0.69322231  0.04295305  0.73850209     0.18990
H1272       H  0.79983902  0.22164565  0.77819490     0.18990
C1273       C  0.87754496  0.24877860  0.73523468    -0.06840
C1274       C  0.88463448  0.26619409  0.78031908    -0.17970
C1275       C  0.91084241  0.31887714  0.78700200     0.10360
C1276       C  0.92683098  0.35545732  0.74797184    -0.06760
C1277       C  0.92230183  0.33918936  0.70372278    -0.18000
C1278       C  0.90359830  0.28824919  0.69743137     0.10390
S1279       S  0.92730290  0.33677859  0.84519934    -0.32960
S1280       S  0.92641720  0.28121508  0.64520452    -0.32970
H1281       H  0.92800746  0.31981253  0.61636783     0.28400
H1282       H  0.96717783  0.38603152  0.83284277     0.28390
H1283       H  0.87105087  0.23863332  0.81070834     0.18990
H1284       H  0.93893426  0.36798048  0.67415506     0.18990
C1285       C  0.91493334  0.11463340  0.75672215    -0.06840
C1286       C  0.87697816  0.09821494  0.78619609    -0.17970
C1287       C  0.85778571  0.12592645  0.78612240     0.10360
C1288       C  0.87481088  0.16942140  0.75307595    -0.06760
C1289       C  0.91947422  0.19211236  0.73422460    -0.18000
C1290       C  0.93838505  0.16449424  0.73343431     0.10390
S1291       S  0.81391800  0.10418074  0.83048472    -0.32960
S1292       S  0.99049091  0.19401947  0.69878503    -0.32970
H1293       H  0.96999712  0.15875058  0.66493411     0.28400
H1294       H  0.82485150  0.15315176  0.83539978     0.28390
H1295       H  0.86109822  0.06261285  0.80846025     0.18990
H1296       H  0.93702088  0.22833577  0.71346065     0.18990
C1297       C  0.79140819  0.15414807  0.50842727    -0.06840
C1298       C  0.76924588  0.17795543  0.51794650    -0.17970
C1299       C  0.72193446  0.15213338  0.51829758     0.10360
C1300       C  0.69462865  0.10062795  0.50940368    -0.06760
C1301       C  0.71506687  0.07686860  0.99772198    -0.18000
C1302       C  0.76216652  0.10502431  0.99044557     0.10390
S1303       S  0.69816944  0.18661275  0.53083930    -0.32960
S1304       S  0.77836737  0.08305043  0.94434276    -0.32970
H1305       H  0.80585949  0.13251143  0.92145171     0.28400
H1306       H  0.65625938  0.14391704  0.55085690     0.28390
H1307       H  0.78804821  0.21808052  0.52257230     0.18990
H1308       H  0.69390357  0.03792042  0.98796204     0.18990
C1309       C  0.87575663  0.23748467  0.00209404    -0.06840
C1310       C  0.86014901  0.25980497  0.97052049    -0.17970
C1311       C  0.88273165  0.31298033  0.96294566     0.10360
C1312       C  0.92333309  0.34559528  0.98587813    -0.06760
C1313       C  0.94264010  0.32444629  0.51094730    -0.18000
C1314       C  0.92062442  0.27168210  0.51811708     0.10390
S1315       S  0.85798829  0.33603288  0.92316959    -0.32960
S1316       S  0.95337994  0.25130918  0.54507498    -0.32970
H1317       H  0.98999571  0.29829646  0.55967609     0.28400
H1318       H  0.89925541  0.38226863  0.90681502     0.28390
H1319       H  0.82979153  0.23593170  0.95149128     0.18990
H1320       H  0.97533903  0.34978459  0.52591045     0.18990
C1321       C  0.85832102  0.14702943  0.00293134    -0.06840
C1322       C  0.83577924  0.09636178  0.52476437    -0.17970
C1323       C  0.85196830  0.06685143  0.51930406     0.10360
C1324       C  0.89026461  0.08679102  0.98894214    -0.06760
C1325       C  0.90766461  0.13241358  0.96072237    -0.18000
C1326       C  0.89189651  0.16251525  0.96636013     0.10390
S1327       S  0.82677261  0.00885989  0.55817981    -0.32960
S1328       S  0.91540014  0.21711393  0.92345855    -0.32970
H1329       H  0.87340454  0.20785458  0.91268070     0.28400
H1330       H  0.83506059  0.98245692  0.52871792     0.28390
H1331       H  0.80782781  0.08154283  0.55017936     0.18990
H1332       H  0.93496115  0.14562145  0.93490420     0.18990
C1333       C  0.84102178  0.18092763  0.67694095    -0.06840
C1334       C  0.85634088  0.15493529  0.65643364    -0.17970
C1335       C  0.86281638  0.15660785  0.60857127     0.10360
C1336       C  0.84605879  0.17896205  0.57652513    -0.06760
C1337       C  0.82976696  0.20378338  0.59822846    -0.18000
C1338       C  0.82273440  0.20091411  0.64621718     0.10390
S1339       S  0.89967690  0.13566796  0.59991175    -0.32960
S1340       S  0.78990788  0.22397458  0.66331880    -0.32970
H1341       H  0.81947310  0.25861957  0.69444978     0.28400
H1342       H  0.91889100  0.15611695  0.55520477     0.28390
H1343       H  0.86487420  0.13306701  0.67823984     0.18990
H1344       H  0.82565935  0.23018735  0.57834884     0.18990
C1345       C  0.84354335  0.67955194  0.02118769    -0.03200
C1346       C  0.84698761  0.68920753  0.23008848    -0.03200
C1347       C  0.65963678  0.83574398  0.43014324    -0.03200
C1348       C  0.66125954  0.83924833  0.22082564    -0.03200
C1349       C  0.91275008  0.56135980  0.48577081     0.75740
Tb1350     Tb  0.55410119  0.51291216  0.48366538     1.80740
O1351       O  0.92453950  0.55548965  0.44715873    -0.52280
O1352       O  0.87897877  0.96955250  0.43587748    -0.59730
C1353       C  0.54809038  0.60932597  0.47347219     0.91550
O1354       O  0.63018414  0.58355700  0.96767718    -0.59260
Tb1355     Tb  0.94553687  0.50293345  0.47765814     1.78060
O1356       O  0.56781832  0.95074906  0.50347343    -0.59760
O1357       O  0.92491338  0.92014260  0.48263651    -0.78560
O1358       O  0.51232171  0.58271308  0.45094035    -0.77880
O1359       O  0.96838171  0.51017642  0.05684629    -0.63150
C1360       C  0.94744516  0.90152637  0.48437982     0.91140
O1361       O  0.54079720  0.52369018  0.40354056    -0.75100
C1362       C  0.58217078  0.45144615  0.46328407     0.74580
C1363       C  0.85142089  0.93542306  0.46717400     0.75560
O1364       O  0.92075426  0.54179119  0.02080508    -0.60340
O1365       O  0.87095238  0.93264957  0.00276664    -0.52290
O1366       O  0.52669512  0.50333352  0.06044142    -0.78350
O1367       O  0.96822025  0.49737420  0.40287100    -0.62350
C1368       C  0.00486605  0.51007520  0.38172562     0.89360
C1369       C  0.99775019  0.50786148  0.07997030     0.90590
C1370       C  0.64600319  0.57332678  0.00255916     0.74930
O1371       O  0.58063288  0.48096636  0.43274796    -0.51680
O1372       O  0.61633634  0.03478411  0.02895141    -0.52830
O1373       O  0.99032928  0.92870336  0.48645753    -0.65680
O1374       O  0.56116679  0.58775287  0.50055373    -0.66820
C1375       C  0.92756598  0.57855610  0.25001693     0.75740
Tb1376     Tb  0.56112942  0.52023025  0.22650973     1.80740
O1377       O  0.95539451  0.58565415  0.21862784    -0.52280
O1378       O  0.89133944  0.96356578  0.17913811    -0.59730
C1379       C  0.55169741  0.61361082  0.21593184     0.91550
O1380       O  0.63959388  0.58080465  0.21102982    -0.59260
Tb1381     Tb  0.94790750  0.50762759  0.23441033     1.78060
O1382       O  0.55857935  0.94475630  0.23625017    -0.59760
O1383       O  0.93835982  0.93260679  0.26757965    -0.78560
O1384       O  0.51731581  0.58627202  0.24417601    -0.77880
O1385       O  0.96775857  0.49728143  0.31037270    -0.63150
C1386       C  0.95494530  0.91155980  0.24988468     0.91140
O1387       O  0.53568965  0.51994663  0.15077207    -0.75100
C1388       C  0.58496131  0.45401592  0.20219105     0.74580
C1389       C  0.85758746  0.94415557  0.20765008     0.75560
O1390       O  0.90975508  0.53591998  0.27378206    -0.60340
O1391       O  0.86871228  0.95459501  0.24902194    -0.52290
O1392       O  0.54014273  0.52167437  0.30563363    -0.78350
O1393       O  0.96722672  0.50616624  0.15529093    -0.62350
C1394       C  0.00001167  0.51148514  0.13185989     0.89360
C1395       C  0.00463524  0.50972516  0.32938762     0.90590
C1396       C  0.65177605  0.58443293  0.25252741     0.74930
O1397       O  0.60073742  0.49726962  0.18058497    -0.51680
O1398       O  0.61864744  0.05822654  0.28209019    -0.52830
O1399       O  0.99401008  0.93718872  0.22904043    -0.65680
O1400       O  0.56617931  0.59290579  0.19371974    -0.66820
C1401       C  0.57653197  0.67060696  0.21327372    -0.06840
C1402       C  0.57189756  0.69062927  0.25218860    -0.17970
C1403       C  0.59465101  0.74311000  0.25520158     0.10360
C1404       C  0.62722887  0.77942425  0.21849412    -0.06760
C1405       C  0.62519581  0.75858027  0.17612451    -0.18000
C1406       C  0.60264414  0.70515822  0.17411847     0.10390
S1407       S  0.57219218  0.75470469  0.30496451    -0.32960
S1408       S  0.61178308  0.68364009  0.12264961    -0.32970
H1409       H  0.56560972  0.64246510  0.12027052     0.28400
H1410       H  0.57644417  0.79959175  0.29094632     0.28390
H1411       H  0.54854996  0.66442851  0.28078873     0.18990
H1412       H  0.64587278  0.78432390  0.14601510     0.18990
C1413       C  0.63604061  0.86204075  0.19549002    -0.06840
C1414       C  0.58955300  0.83851120  0.20788979    -0.17970
C1415       C  0.57079094  0.86643015  0.20848874     0.10360
C1416       C  0.59718897  0.91849169  0.19059825    -0.06760
C1417       C  0.63746442  0.93664030  0.16414361    -0.18000
C1418       C  0.65538595  0.90726458  0.16384962     0.10390
S1419       S  0.51431867  0.83539778  0.23481062    -0.32960
S1420       S  0.69455589  0.92347913  0.11577435    -0.32970
H1421       H  0.68373436  0.87382401  0.11576791     0.28400
H1422       H  0.50916826  0.79092146  0.25510466     0.28390
H1423       H  0.56761510  0.79825819  0.21864105     0.18990
H1424       H  0.65530659  0.97379882  0.14417075     0.18990
C1425       C  0.71198216  0.86330919  0.20160120    -0.06840
C1426       C  0.74293844  0.91762785  0.19919015    -0.17970
C1427       C  0.79013137  0.94404049  0.19298885     0.10360
C1428       C  0.80974983  0.91743923  0.19450695    -0.06760
C1429       C  0.78151275  0.86431693  0.19568590    -0.18000
C1430       C  0.73350543  0.83657465  0.19892691     0.10390
S1431       S  0.82594219  0.51277989  0.18750696    -0.32960
S1432       S  0.70586024  0.76828276  0.21060603    -0.32970
H1433       H  0.73551772  0.76585638  0.18136481     0.28400
H1434       H  0.81937375  0.51324309  0.23549601     0.28390
H1435       H  0.73091082  0.94073926  0.20384401     0.18990
H1436       H  0.79735483  0.84409388  0.19861607     0.18990
C1437       C  0.62876684  0.77570119  0.44380812    -0.06840
C1438       C  0.61238229  0.74103474  0.40882228    -0.17970
C1439       C  0.58871537  0.68831606  0.41818108     0.10360
C1440       C  0.57689285  0.66610826  0.46418584    -0.06760
C1441       C  0.59139237  0.69863637  0.00032666    -0.18000
C1442       C  0.61728154  0.75273449  0.99088509     0.10390
S1443       S  0.57709585  0.65126516  0.36933341    -0.32960
S1444       S  0.63269750  0.79091304  0.03958987    -0.32970
H1445       H  0.65713300  0.77287696  0.05963939     0.28400
H1446       H  0.59302706  0.62394752  0.39092823     0.28390
H1447       H  0.61898538  0.75372542  0.37276484     0.18990
H1448       H  0.58093815  0.68163063  0.03578671     0.18990
C1449       C  0.63602336  0.86286214  0.44319758    -0.06840
C1450       C  0.65957443  0.91570125  0.42627643    -0.17970
C1451       C  0.64141415  0.94369334  0.42820565     0.10360
C1452       C  0.60037598  0.92190233  0.45402028    -0.06760
C1453       C  0.57582183  0.87018227  0.47132248    -0.18000
C1454       C  0.59039090  0.83922956  0.46184622     0.10390
S1455       S  0.67105728  0.50455933  0.39268035    -0.32960
S1456       S  0.54572845  0.77114290  0.46610601    -0.32970
H1457       H  0.50944976  0.77540464  0.45838523     0.28540
H1458       H  0.66060306  0.53098558  0.41973966     0.28390
H1459       H  0.69144229  0.93460127  0.40605641     0.18990
H1460       H  0.54276668  0.85269799  0.48869286     0.18990
C1461       C  0.70697948  0.86119929  0.45477978    -0.06840
C1462       C  0.72311322  0.83216248  0.47318692    -0.17970
C1463       C  0.76954866  0.85561667  0.48107599     0.10360
C1464       C  0.80158290  0.90744695  0.46433706    -0.06760
C1465       C  0.78547469  0.93645800  0.44925673    -0.18000
C1466       C  0.73924659  0.91521649  0.45495023     0.10390
S1467       S  0.78587874  0.81713647  0.50973147    -0.32960
S1468       S  0.73046972  0.95067599  0.99365625    -0.32970
H1469       H  0.69032856  0.90725776  0.51593554     0.28400
H1470       H  0.80740088  0.84970848  0.54556129     0.28390
H1471       H  0.70110558  0.79085257  0.47863373     0.18990
H1472       H  0.80945942  0.97791215  0.44379802     0.18990
C1473       C  0.66957161  0.85041222  0.27366376    -0.06840
C1474       C  0.68991661  0.83036698  0.30060991    -0.17970
C1475       C  0.69376584  0.83207978  0.34926445     0.10360
C1476       C  0.66932278  0.84607985  0.37494330    -0.06760
C1477       C  0.64773617  0.86381398  0.34672109    -0.18000
C1478       C  0.65659757  0.87637814  0.29907578     0.10390
S1479       S  0.72199286  0.80547828  0.37602075    -0.32960
S1480       S  0.65192256  0.92713374  0.27805676    -0.32970
H1481       H  0.68886636  0.95058122  0.24620070     0.28400
H1482       H  0.70780131  0.76799825  0.34476387     0.28390
H1483       H  0.70259268  0.81209725  0.28394349     0.18990
H1484       H  0.62266169  0.86833778  0.36035721     0.18990
C1485       C  0.69986687  0.60789072  0.26283844    -0.06840
C1486       C  0.71689362  0.58174986  0.24837700    -0.17970
C1487       C  0.76338684  0.60552017  0.24152541     0.10360
C1488       C  0.79605160  0.65835167  0.24967686    -0.06760
C1489       C  0.77798411  0.68229462  0.27027024    -0.18000
C1490       C  0.73049579  0.65762683  0.27675682     0.10390
S1491       S  0.77674716  0.56547339  0.21843484    -0.32960
S1492       S  0.71115847  0.69243725  0.30039992    -0.32970
H1493       H  0.66701302  0.64948797  0.31457135     0.28400
H1494       H  0.75516606  0.52809381  0.25666673     0.28390
H1495       H  0.69322428  0.54295022  0.23853800     0.18990
H1496       H  0.79984562  0.72165547  0.27819339     0.18990
C1497       C  0.87755179  0.74877871  0.23524690    -0.06840
C1498       C  0.88463160  0.76619843  0.28032935    -0.17970
C1499       C  0.91083266  0.81888217  0.28700917     0.10360
C1500       C  0.92684011  0.85546006  0.24797541    -0.06760
C1501       C  0.92232411  0.83918932  0.20372983    -0.18000
C1502       C  0.90361343  0.78824619  0.19744324     0.10390
S1503       S  0.92724628  0.83678995  0.34521421    -0.32960
S1504       S  0.92643055  0.78120291  0.14522065    -0.32970
H1505       H  0.92802519  0.81980087  0.11638010     0.28400
H1506       H  0.96713357  0.88603705  0.33287137     0.28390
H1507       H  0.87103771  0.73863980  0.31072044     0.18990
H1508       H  0.93896716  0.86797917  0.17416239     0.18990
C1509       C  0.91492740  0.61462502  0.25673246    -0.06840
C1510       C  0.87697405  0.59820745  0.28620929    -0.17970
C1511       C  0.85778761  0.62592481  0.28614296     0.10360
C1512       C  0.87481611  0.66942283  0.25310036    -0.06760
C1513       C  0.91947965  0.69211328  0.23425160    -0.18000
C1514       C  0.93838411  0.66448985  0.23345126     0.10390
S1515       S  0.81392616  0.60418613  0.33051063    -0.32960
S1516       S  0.99048445  0.69401466  0.19879211    -0.32970
H1517       H  0.96999484  0.65873334  0.16495203     0.28400
H1518       H  0.82485828  0.65315802  0.33541688     0.28390
H1519       H  0.86109139  0.56260269  0.30846987     0.18990
H1520       H  0.93702944  0.72833947  0.21349256     0.18990
C1521       C  0.79147020  0.65415513  0.00842072    -0.06840
C1522       C  0.76930678  0.67796345  0.01793005    -0.17970
C1523       C  0.72199653  0.65214165  0.01827456     0.10360
C1524       C  0.69469424  0.60063778  0.00937734    -0.06760
C1525       C  0.71499968  0.57685620  0.49775052    -0.18000
C1526       C  0.76209853  0.60501322  0.49046072     0.10390
S1527       S  0.69822869  0.68661851  0.03081523    -0.32960
S1528       S  0.77828704  0.58303881  0.44434751    -0.32970
H1529       H  0.80575583  0.63249649  0.42144461     0.28400
H1530       H  0.65632170  0.64392284  0.05083874     0.28390
H1531       H  0.78810763  0.71808811  0.02255768     0.18990
H1532       H  0.69383440  0.53790549  0.48799659     0.18990
C1533       C  0.87569572  0.73748290  0.50206438    -0.06840
C1534       C  0.86007341  0.75979538  0.47049921    -0.17970
C1535       C  0.88265349  0.81297114  0.46291979     0.10360
C1536       C  0.92326510  0.84558853  0.48582872    -0.06760
C1537       C  0.94269192  0.82443827  0.01101119    -0.18000
C1538       C  0.92067705  0.77167452  0.01816433     0.10390
S1539       S  0.85791183  0.83603644  0.42315819    -0.32960
S1540       S  0.95342596  0.75128931  0.04511848    -0.32970
H1541       H  0.99005779  0.79827481  0.05970574     0.28400
H1542       H  0.89916794  0.88234007  0.40690123     0.28390
H1543       H  0.82970677  0.73591738  0.45148401     0.18990
H1544       H  0.97538273  0.84976089  0.02599332     0.18990
C1545       C  0.85825728  0.64702016  0.50291271    -0.06840
C1546       C  0.83583947  0.59636704  0.02477264    -0.17970
C1547       C  0.85203251  0.56686084  0.01931151     0.10360
C1548       C  0.89019307  0.58677222  0.48892654    -0.06760
C1549       C  0.90758704  0.63238821  0.46069699    -0.18000
C1550       C  0.89182279  0.66249464  0.46633422     0.10390
S1551       S  0.82682959  0.50886084  0.05817650    -0.32960
S1552       S  0.91531830  0.71708572  0.42342587    -0.32970
H1553       H  0.87332014  0.70782888  0.41266559     0.28400
H1554       H  0.83512658  0.48246666  0.02871376     0.28390
H1555       H  0.80788079  0.58154045  0.05018013     0.18990
H1556       H  0.93487721  0.64558850  0.43487309     0.18990
C1557       C  0.84103180  0.68091793  0.17695860    -0.06840
C1558       C  0.85635011  0.65491968  0.15646100    -0.17970
C1559       C  0.86283565  0.65659081  0.10860032     0.10360
C1560       C  0.84609038  0.67895085  0.07654408    -0.06760
C1561       C  0.82979191  0.70377101  0.09823873    -0.18000
C1562       C  0.82274971  0.70090287  0.14622577     0.10390
S1563       S  0.89968884  0.63563849  0.09995781    -0.32960
S1564       S  0.78992094  0.72396485  0.16331499    -0.32970
H1565       H  0.81948715  0.75861799  0.19444034     0.28400
H1566       H  0.91892355  0.65609547  0.05525856     0.28390
H1567       H  0.86487598  0.63304888  0.17827457     0.18990
H1568       H  0.82568984  0.73017722  0.07835482     0.18990
C1569       C  0.84348889  0.67955123  0.52117134    -0.03200
C1570       C  0.84698141  0.68920923  0.73007154    -0.03200
C1571       C  0.65970511  0.83576014  0.93013611    -0.03200
C1572       C  0.66127537  0.83924626  0.72082434    -0.03200
C1573       C  0.91282139  0.56138027  0.98578032     0.75740
Tb1574     Tb  0.55415985  0.51291164  0.98368335     1.80740
O1575       O  0.92462538  0.55553188  0.94716523    -0.52280
O1576       O  0.87903967  0.96959194  0.93589410    -0.59730
C1577       C  0.54817055  0.60934600  0.97347180     0.91550
O1578       O  0.63013081  0.58355289  0.46767942    -0.59260
Tb1579     Tb  0.94560554  0.50295709  0.97764991     1.78060
O1580       O  0.56793666  0.95079902  0.00349318    -0.59760
O1581       O  0.92503134  0.92019767  0.98236553    -0.78560
O1582       O  0.51239549  0.58273938  0.95094744    -0.77880
O1583       O  0.96837387  0.51024682  0.55683651    -0.63150
C1584       C  0.94753022  0.90154251  0.98441937     0.91140
O1585       O  0.54081514  0.52359484  0.90354318    -0.75100
C1586       C  0.58220598  0.45142676  0.96328381     0.74580
C1587       C  0.85148859  0.93544234  0.96718111     0.75560
O1588       O  0.92069800  0.54179078  0.52079980    -0.60340
O1589       O  0.87087751  0.93264821  0.50277302    -0.52290
O1590       O  0.52658676  0.50322725  0.56042713    -0.78350
O1591       O  0.96829274  0.49746953  0.90284917    -0.62350
C1592       C  0.00491006  0.51007538  0.88171729     0.89360
C1593       C  0.99770114  0.50784918  0.57995858     0.90590
C1594       C  0.64593822  0.57332215  0.50257319     0.74930
O1595       O  0.58059322  0.48088286  0.93273542    -0.51680
O1596       O  0.61626165  0.03478164  0.52896262    -0.52830
O1597       O  0.99038919  0.92868858  0.98677194    -0.65680
O1598       O  0.56124852  0.58777047  0.00054764    -0.66820
C1599       C  0.92757716  0.57856719  0.75001430     0.75740
Tb1600     Tb  0.56112438  0.52021732  0.72648049     1.80740
O1601       O  0.95539803  0.58565681  0.71861938    -0.52280
O1602       O  0.89134701  0.96345984  0.67917778    -0.59730
C1603       C  0.55170465  0.61360631  0.71593356     0.91550
O1604       O  0.63958922  0.58076616  0.71098940    -0.59260
Tb1605     Tb  0.94791840  0.50763501  0.73442148     1.78060
O1606       O  0.55857560  0.94474436  0.73623436    -0.59760
O1607       O  0.93836734  0.93261045  0.76759137    -0.78560
O1608       O  0.51733334  0.58626879  0.74418966    -0.77880
O1609       O  0.96779552  0.49729792  0.81037318    -0.63150
C1610       C  0.95494166  0.91155743  0.74988307     0.91140
O1611       O  0.53565288  0.51990664  0.65075106    -0.75100
C1612       C  0.58495745  0.45399961  0.70217691     0.74580
C1613       C  0.85759693  0.94415266  0.70767064     0.75560
O1614       O  0.90977510  0.53593890  0.77379142    -0.60340
O1615       O  0.86872343  0.95469172  0.74902429    -0.52290
O1616       O  0.54016699  0.52165198  0.80561827    -0.78350
O1617       O  0.96722222  0.50620469  0.65528710    -0.62350
C1618       C  0.99998381  0.51148276  0.63184756     0.89360
C1619       C  0.00467098  0.50972247  0.82937988     0.90590
C1620       C  0.65177145  0.58443109  0.75248899     0.74930
O1621       O  0.60073151  0.49724985  0.68056391    -0.51680
O1622       O  0.61864278  0.05825720  0.78205548    -0.52830
O1623       O  0.99399914  0.93718161  0.72902386    -0.65680
O1624       O  0.56617318  0.59289781  0.69370455    -0.66820
C1625       C  0.57654175  0.67060275  0.71327915    -0.06840
C1626       C  0.57192388  0.69062635  0.75220323    -0.17970
C1627       C  0.59468129  0.74310775  0.75521738     0.10360
C1628       C  0.62724520  0.77942095  0.71850009    -0.06760
C1629       C  0.62519498  0.75857517  0.67612632    -0.18000
C1630       C  0.60264042  0.70515306  0.67411874     0.10390
S1631       S  0.57225105  0.75470711  0.80500164    -0.32960
S1632       S  0.61175853  0.68363301  0.62263907    -0.32970
H1633       H  0.56558197  0.64246174  0.62027278     0.28400
H1634       H  0.57645879  0.79956709  0.79097032     0.28390
H1635       H  0.54859047  0.66442675  0.78081277     0.18990
H1636       H  0.64586096  0.78431785  0.64601186     0.18990
C1637       C  0.63605016  0.86203369  0.69549551    -0.06840
C1638       C  0.58956371  0.83850310  0.70790525    -0.17970
C1639       C  0.57079552  0.86641707  0.70849288     0.10360
C1640       C  0.59718906  0.91847603  0.69059404    -0.06760
C1641       C  0.63746451  0.93662483  0.66414004    -0.18000
C1642       C  0.65539030  0.90725352  0.66385051     0.10390
S1643       S  0.51431977  0.83538222  0.73480776    -0.32960
S1644       S  0.69456806  0.92347578  0.61578122    -0.32970
H1645       H  0.68374110  0.87381911  0.61576492     0.28400
H1646       H  0.50917391  0.79091190  0.75511291     0.28390
H1647       H  0.56763090  0.79825266  0.71866931     0.18990
H1648       H  0.65530379  0.97378113  0.64416348     0.18990
C1649       C  0.71199573  0.86331095  0.70158995    -0.06840
C1650       C  0.74295075  0.91762866  0.69919659    -0.17970
C1651       C  0.79014448  0.94404256  0.69300985     0.10360
C1652       C  0.80976336  0.91744208  0.69451310    -0.06760
C1653       C  0.78152772  0.86432228  0.69565768    -0.18000
C1654       C  0.73351979  0.83657935  0.69889652     0.10390
S1655       S  0.82595605  0.51278165  0.68755644    -0.32960
S1656       S  0.70587656  0.76828766  0.71056266    -0.32970
H1657       H  0.73551764  0.76586984  0.68128636     0.28400
H1658       H  0.81932382  0.51321995  0.73553603     0.28390
H1659       H  0.73092020  0.94073612  0.70385936     0.18990
H1660       H  0.79736927  0.84409825  0.69857308     0.18990
C1661       C  0.62884544  0.77571699  0.94379744    -0.06840
C1662       C  0.61248818  0.74104982  0.90881295    -0.17970
C1663       C  0.58882390  0.68833138  0.91817660     0.10360
C1664       C  0.57698001  0.66612658  0.96418189    -0.06760
C1665       C  0.59132194  0.69861733  0.50033367    -0.18000
C1666       C  0.61721280  0.75271670  0.49089499     0.10390
S1667       S  0.57722570  0.65127616  0.86933563    -0.32960
S1668       S  0.63264150  0.79089395  0.53960226    -0.32970
H1669       H  0.65709259  0.77286864  0.55963055     0.28400
H1670       H  0.59307909  0.62389533  0.89097308     0.28390
H1671       H  0.61910668  0.75373673  0.87275421     0.18990
H1672       H  0.58087982  0.68161021  0.53579425     0.18990
C1673       C  0.63608352  0.86286825  0.94319728    -0.06840
C1674       C  0.65962904  0.91570846  0.92628120    -0.17970
C1675       C  0.64145913  0.94369131  0.92820906     0.10360
C1676       C  0.60041419  0.92188784  0.95401367    -0.06760
C1677       C  0.57586572  0.87016751  0.97131225    -0.18000
C1678       C  0.59044510  0.83922406  0.96183546     0.10390
S1679       S  0.67110359  0.50456844  0.89270187    -0.32960
S1680       S  0.54578939  0.77113519  0.96607274    -0.32970
H1681       H  0.50949583  0.77538281  0.95841682     0.28540
H1682       H  0.66058051  0.53095371  0.91973386     0.28390
H1683       H  0.69149885  0.93461560  0.90606329     0.18990
H1684       H  0.54280816  0.85267730  0.98867970     0.18990
C1685       C  0.70704810  0.86121689  0.95477330    -0.06840
C1686       C  0.72318040  0.83217994  0.97318839    -0.17970
C1687       C  0.76961496  0.85563407  0.98108429     0.10360
C1688       C  0.80165003  0.90746409  0.96434630    -0.06760
C1689       C  0.78554265  0.93647326  0.94925382    -0.18000
C1690       C  0.73931494  0.91523379  0.95494111     0.10390
S1691       S  0.78594382  0.81715272  0.00974024    -0.32960
S1692       S  0.73040052  0.95065746  0.49366651    -0.32970
H1693       H  0.69040169  0.90727595  0.01593044     0.28400
H1694       H  0.80746682  0.84972552  0.04556945     0.28390
H1695       H  0.70117390  0.79087002  0.97863402     0.18990
H1696       H  0.80952720  0.97792718  0.94379052     0.18990
C1697       C  0.66960001  0.85041857  0.77365921    -0.06840
C1698       C  0.68996973  0.83039626  0.80059486    -0.17970
C1699       C  0.69384191  0.83212750  0.84924669     0.10360
C1700       C  0.66938469  0.84610281  0.87493551    -0.06760
C1701       C  0.64777781  0.86381857  0.84672351    -0.18000
C1702       C  0.65662208  0.87637714  0.79907681     0.10390
S1703       S  0.72212539  0.80559029  0.87599540    -0.32960
S1704       S  0.65191958  0.92711442  0.77806362    -0.32970
H1705       H  0.68885586  0.95057219  0.74619595     0.28400
H1706       H  0.70808493  0.76820600  0.84467233     0.28390
H1707       H  0.70265095  0.81213632  0.78391944     0.18990
H1708       H  0.62269900  0.86833073  0.86036880     0.18990
C1709       C  0.69986103  0.60788986  0.76280683    -0.06840
C1710       C  0.71688975  0.58175092  0.74834644    -0.17970
C1711       C  0.76338298  0.60552144  0.74150154     0.10360
C1712       C  0.79604610  0.65835028  0.74966159    -0.06760
C1713       C  0.77797675  0.68228817  0.77026139    -0.18000
C1714       C  0.73048707  0.65762090  0.77673814     0.10390
S1715       S  0.77674595  0.56548007  0.71840458    -0.32960
S1716       S  0.71114499  0.69242770  0.80037890    -0.32970
H1717       H  0.66700163  0.64947604  0.81455218     0.28400
H1718       H  0.75515706  0.52809189  0.75662919     0.28390
H1719       H  0.69322232  0.54295312  0.73850202     0.18990
H1720       H  0.79983902  0.72164573  0.77819483     0.18990
C1721       C  0.87754497  0.74877865  0.73523463    -0.06840
C1722       C  0.88463447  0.76619415  0.78031902    -0.17970
C1723       C  0.91084240  0.81887721  0.78700194     0.10360
C1724       C  0.92683102  0.85545738  0.74797178    -0.06760
C1725       C  0.92230187  0.83918941  0.70372272    -0.18000
C1726       C  0.90359832  0.78824924  0.69743132     0.10390
S1727       S  0.92730282  0.83677866  0.84519929    -0.32960
S1728       S  0.92641721  0.78121511  0.64520446    -0.32970
H1729       H  0.92800746  0.81981255  0.61636777     0.28400
H1730       H  0.96717784  0.88603152  0.83284273     0.28390
H1731       H  0.87105084  0.73863339  0.81070828     0.18990
H1732       H  0.93893432  0.86798052  0.67415500     0.18990
C1733       C  0.91493333  0.61463344  0.75672214    -0.06840
C1734       C  0.87697815  0.59821500  0.78619608    -0.17970
C1735       C  0.85778572  0.62592651  0.78612238     0.10360
C1736       C  0.87481088  0.66942145  0.75307591    -0.06760
C1737       C  0.91947422  0.69211240  0.73422456    -0.18000
C1738       C  0.93838504  0.66449427  0.73343428     0.10390
S1739       S  0.81391801  0.60418083  0.83048470    -0.32960
S1740       S  0.99049088  0.69401947  0.69878498    -0.32970
H1741       H  0.96999709  0.65875056  0.66493408     0.28400
H1742       H  0.82485151  0.65315185  0.83539974     0.28390
H1743       H  0.86109822  0.56261292  0.80846025     0.18990
H1744       H  0.93702088  0.72833580  0.71346059     0.18990
C1745       C  0.79140818  0.65414808  0.50842723    -0.06840
C1746       C  0.76924587  0.67795544  0.51794645    -0.17970
C1747       C  0.72193444  0.65213340  0.51829750     0.10360
C1748       C  0.69462863  0.60062797  0.50940359    -0.06760
C1749       C  0.71506685  0.57686861  0.99772194    -0.18000
C1750       C  0.76216650  0.60502431  0.99044554     0.10390
S1751       S  0.69816943  0.68661279  0.53083920    -0.32960
S1752       S  0.77836735  0.58305040  0.94434275    -0.32970
H1753       H  0.80585952  0.63251139  0.92145172     0.28400
H1754       H  0.65625936  0.64391708  0.55085677     0.28390
H1755       H  0.78804820  0.71808052  0.52257227     0.18990
H1756       H  0.69390355  0.53792042  0.98796202     0.18990
C1757       C  0.87575662  0.73748469  0.00209399    -0.06840
C1758       C  0.86014900  0.75980499  0.97052046    -0.17970
C1759       C  0.88273163  0.81298035  0.96294564     0.10360
C1760       C  0.92333310  0.84559530  0.98587807    -0.06760
C1761       C  0.94264012  0.82444631  0.51094722    -0.18000
C1762       C  0.92062443  0.77168212  0.51811702     0.10390
S1763       S  0.85798823  0.83603291  0.92316965    -0.32960
S1764       S  0.95337993  0.75130919  0.54507494    -0.32970
H1765       H  0.98999569  0.79829647  0.55967608     0.28400
H1766       H  0.89925534  0.88226871  0.90681512     0.28390
H1767       H  0.82979151  0.73593172  0.95149127     0.18990
H1768       H  0.97533907  0.84978462  0.52591034     0.18990
C1769       C  0.85832102  0.64702944  0.00293131    -0.06840
C1770       C  0.83577923  0.59636180  0.52476435    -0.17970
C1771       C  0.85196830  0.56685144  0.51930404     0.10360
C1772       C  0.89026460  0.58679102  0.98894213    -0.06760
C1773       C  0.90766460  0.63241357  0.96072235    -0.18000
C1774       C  0.89189650  0.66251525  0.96636010     0.10390
S1775       S  0.82677261  0.50885991  0.55817980    -0.32960
S1776       S  0.91540013  0.71711392  0.92345851    -0.32970
H1777       H  0.87340453  0.70785459  0.91268068     0.28400
H1778       H  0.83506060  0.48245694  0.52871795     0.28390
H1779       H  0.80782780  0.58154284  0.55017934     0.18990
H1780       H  0.93496114  0.64562144  0.93490419     0.18990
C1781       C  0.84102179  0.68092767  0.67694091    -0.06840
C1782       C  0.85634087  0.65493532  0.65643361    -0.17970
C1783       C  0.86281637  0.65660788  0.60857123     0.10360
C1784       C  0.84605878  0.67896208  0.57652509    -0.06760
C1785       C  0.82976696  0.70378342  0.59822841    -0.18000
C1786       C  0.82273441  0.70091416  0.64621714     0.10390
S1787       S  0.89967689  0.63566798  0.59991173    -0.32960
S1788       S  0.78990791  0.72397466  0.66331874    -0.32970
H1789       H  0.81947314  0.75861966  0.69444971     0.28400
H1790       H  0.91889099  0.65611697  0.55520475     0.28390
H1791       H  0.86487418  0.63306704  0.67823981     0.18990
H1792       H  0.82565935  0.73018739  0.57834879     0.18990
loop_ 
_geom_bond_atom_site_label_1 
_geom_bond_atom_site_label_2 
_geom_bond_distance 
_geom_bond_site_symmetry_2 
_ccdc_geom_bond_type 
C1          C177   1.607       .  S
C1          C216   1.593       .  S
C1          C413   1.566       .  S
C1          C425   1.546       .  S
C2          C144   1.577       .  S
C2          C153   1.579       .  S
C2          C168   1.584       .  S
C2          C213   1.564       .  S
C3           C93   1.583       .  S
C3          C105   1.594       .  S
C3          C117   1.592       .  S
C3          C132   1.595       .  S
C4           C60   1.577       .  S
C4           C69   1.602       .  S
C4           C81   1.598       .  S
C4          C129   1.576       .  S
C5            O7   1.259       .  A
C5          O244   1.263       .  A
C5          C204   1.456       .  S
Tb6          O17   2.389       .  S
Tb6          O30   2.357       .  S
Tb6          O27   2.349   1_545  S
Tb6         O700   2.341       .  S
Tb6        O1373   2.315   1_445  S
Tb6         O460   2.348   1_545  S
Tb6         O246   2.350       .  S
Tb6         O234   2.346       .  S
O7          Tb11   2.329       .  S
O8           C19   1.261       .  A
O8         Tb459   2.349       .  S
C9           O14   1.268       .  A
C9           O30   1.263       .  A
C9           C96   1.485       .  S
O10          C26   1.263   1_556  A
O10        Tb230   2.346       .  S
Tb11         O23   2.364   1_545  S
Tb11        O456   2.349   1_545  S
Tb11        O239   2.398       .  S
Tb11        O244   2.338       .  S
Tb11        O910   2.347       .  S
Tb11        O693   2.362   1_545  S
Tb11        O461   2.300   1_545  S
O12         C466   1.264       .  A
O12        Tb454   2.348       .  S
O13          C16   1.256       .  A
O13        Tb459   2.300       .  S
O14        Tb907   2.347   1_455  S
O15          C25   1.280       .  A
O15        Tb235   2.398   1_554  S
C16          O29   1.263       .  A
C16         C192   1.470       .  S
O17         C920   1.278       .  A
C18          O27   1.265       .  A
C18         O460   1.264       .  A
C18         C556   1.472       .  S
C19         O245   1.262       .  A
C19         C120   1.475       .  S
O20         C229   1.263   1_554  A
O20        Tb235   2.338   1_554  S
O21         C243   1.262   1_554  A
O21        Tb683   2.362   1_554  S
O22         C921   1.274   1_455  A
O22        Tb230   2.350   1_554  S
O23          C24   1.276   1_565  A
C24         O913   1.278       .  A
C24          C51   1.506       .  S
C25         O918   1.274       .  A
C25          C50   1.504       .  S
C26         O476   1.256       .  A
C26         C180   1.457       .  S
O28         C474   1.256       .  A
O28        Tb678   2.341   1_554  S
O29       Tb1350   2.315       .  S
C31          O46   1.261       .  A
C31          O33   1.261       .  A
C31         C165   1.496       .  S
Tb32         O48   2.417       .  S
Tb32         O43   2.355       .  S
Tb32         O36   2.340       .  S
Tb32         O56   2.351       .  S
Tb32         O53   2.395   1_545  S
Tb32        O502   2.380       .  S
Tb32       O1399   2.336   1_445  S
Tb32        O486   2.366   1_545  S
O33         Tb37   2.365       .  S
O34          C45   1.263       .  A
O34        Tb485   2.376       .  S
C35          O40   1.267       .  A
C35          O56   1.265       .  A
C35          C57   1.495       .  S
O36          C52   1.259       .  A
Tb37         O41   2.351   1_545  S
Tb37         O46   2.375       .  S
Tb37         O49   2.398       .  S
Tb37        O482   2.376   1_545  S
Tb37        O936   2.342       .  S
Tb37        O495   2.342   1_545  S
Tb37        O487   2.347   1_545  S
O38         C492   1.262       .  A
O38        Tb480   2.366       .  S
O39          C42   1.266       .  A
O39        Tb485   2.347       .  S
O40        Tb933   2.342   1_455  S
O41          C51   1.277   1_565  A
C42          O55   1.268       .  A
C42         C156   1.474       .  S
O43         C946   1.276       .  A
C44          O53   1.261       .  A
C44         O486   1.262       .  A
C44         C520   1.502       .  S
C45          O47   1.261       .  A
C45          C84   1.475       .  S
O47        Tb485   2.342       .  S
O48         C947   1.286       .  A
O49          C50   1.281       .  A
C50         O939   1.276       .  A
C51         O944   1.286       .  A
C52         O502   1.262       .  A
C52         C141   1.473       .  S
O54         C500   1.262       .  A
O54        Tb480   2.380       .  S
O55       Tb1376   2.336       .  S
C57          C58   1.392       .  A
C57          C62   1.411       .  A
C58          C59   1.393       .  A
C58          H67   1.082       .  S
C59          C60   1.445       .  A
C59          S63   1.816       .  S
C60          C61   1.418       .  A
C61          C62   1.416       .  A
C61          H68   1.082       .  S
C62          S64   1.793       .  S
S63          H66   1.384       .  S
S64          H65   1.408       .  S
C69          C70   1.415       .  A
C69          C74   1.431       .  A
C70          C71   1.403       .  A
C70          H79   1.070       .  S
C71          C72   1.411       .  A
C71          S75   1.805       .  S
C72         C492   1.502       .  S
C72          C73   1.411       .  A
C73          C74   1.420       .  A
C73          H80   1.083       .  S
C74          S76   1.800       .  S
S75          H78   1.406       .  S
S76          H77   1.405       .  S
C81          C82   1.420       .  A
C81          C86   1.459       .  A
C82          C83   1.396       .  A
C82          H91   1.071       .  S
C83          C84   1.388       .  A
C83         S535   1.791       .  S
C84          C85   1.387       .  A
C85          C86   1.413       .  A
C85          H92   1.084       .  S
C86          S88   1.808       .  S
S87         C531   1.791   1_545  S
S87          H90   1.405       .  S
S88          H89   1.407       .  S
C93          C94   1.417       .  A
C93         C322   1.430       .  A
C94          C95   1.386       .  A
C94         H103   1.059       .  S
C95          C96   1.395       .  A
C95          S99   1.802       .  S
C96         C321   1.406       .  A
C97          C98   1.418   1_554  A
C97         C320   1.406   1_554  A
C97         H104   1.076       .  S
C98         C317   1.430       .  A
C98         S100   1.802   1_556  S
S99         H102   1.406       .  S
S100        H101   1.405       .  S
C105        C106   1.428       .  A
C105        C110   1.438       .  A
C106        C107   1.390       .  A
C106        H115   1.082       .  S
C107        C108   1.401       .  A
C107        S559   1.811       .  S
C108        C466   1.472       .  S
C108        C109   1.400       .  A
C109        C110   1.411       .  A
C109        H116   1.083       .  S
C110        S112   1.807       .  S
S111        C555   1.811   1_545  S
S111        H114   1.397       .  S
S112        H113   1.405       .  S
C117        C118   1.426       .  A
C117        C122   1.422       .  A
C118        C119   1.406       .  A
C118        H127   1.078       .  S
C119        C120   1.409       .  A
C119        S123   1.796       .  S
C120        C121   1.397       .  A
C121        C122   1.391       .  A
C121        H128   1.085       .  S
C122        S348   1.808       .  S
S123        H126   1.406       .  S
S124        C346   1.808       .  S
S124        H349   1.405   1_556  S
H125        S348   1.405       .  S
C129        C130   1.418       .  A
C129        C134   1.416       .  A
C130        C131   1.408       .  A
C130        H139   1.069       .  S
C131        C132   1.431       .  A
C131        S135   1.802       .  S
C132        C133   1.420       .  A
C133        C134   1.383       .  A
C133        H140   1.077       .  S
C134        S136   1.792       .  S
S135        H138   1.404       .  S
S136        H137   1.388       .  S
C141        C142   1.383       .  A
C141        C146   1.407       .  A
C142        C143   1.388       .  A
C142        H151   1.086       .  S
C143        C144   1.436       .  A
C143        S147   1.786       .  S
C144        C145   1.424       .  A
C145        C146   1.414       .  A
C145        H152   1.076       .  S
C146        S148   1.798       .  S
S147        H150   1.405       .  S
S148        H149   1.405       .  S
C153        C154   1.416       .  A
C153        C158   1.444       .  A
C154        C155   1.410       .  A
C154        H163   1.080       .  S
C155        C156   1.409       .  A
C155        S159   1.796       .  S
C156        C157   1.387       .  A
C157        C158   1.389       .  A
C157        H164   1.085       .  S
C158        S160   1.810       .  S
S159        H162   1.405       .  S
S160        H161   1.407       .  S
C165        C166   1.407       .  A
C165        C170   1.412       .  A
C166        C167   1.409       .  A
C166        H175   1.084       .  S
C167        C168   1.426       .  A
C167        S171   1.796       .  S
C168        C169   1.416       .  A
C169        C170   1.399       .  A
C169        H176   1.073       .  S
C170        S172   1.798       .  S
S171        H174   1.402       .  S
S172        H173   1.404       .  S
C177        C178   1.430       .  A
C177        C406   1.436   1_554  A
C178        C179   1.397       .  A
C178        H187   1.073       .  S
C179        C180   1.395       .  A
C179        S183   1.806       .  S
C180        C405   1.389   1_554  A
C181        C182   1.392       .  A
C181        C404   1.389       .  A
C181        H188   1.082       .  S
C182        C401   1.436       .  A
C182        S184   1.800       .  S
S183        H186   1.406       .  S
S184        H185   1.398       .  S
C189        C225   1.566       .  S
C189        C190   1.418       .  A
C189        C418   1.430       .  A
C190        C191   1.399       .  A
C190        H199   1.081       .  S
C191        C192   1.410       .  A
C191        S195   1.807       .  S
C192        C417   1.390       .  A
C193        C194   1.389       .  A
C193        C416   1.390   1_554  A
C193        H200   1.082       .  S
C194        C413   1.430       .  A
C194        S196   1.795       .  S
S195        H198   1.405       .  S
S196        H197   1.406       .  S
C201        C225   1.546       .  S
C201        C206   1.434       .  A
C201        C426   1.419       .  A
C202        C203   1.390       .  A
C202        C425   1.419       .  A
C202        H211   1.084       .  S
C203        C428   1.406   1_554  A
C203        S207   1.807       .  S
C204        C205   1.397       .  A
C204        C427   1.406       .  A
C205        C206   1.396       .  A
C205        H212   1.085       .  S
C206        S208   1.806       .  S
S207        H210   1.393   1_545  S
S208        H209   1.400       .  S
C213        C214   1.403       .  A
C213        C218   1.420       .  A
C214        C215   1.390       .  A
C214        H223   1.076       .  S
C215        C216   1.455       .  A
C215        S219   1.830       .  S
C216        C217   1.414       .  A
C217        C218   1.392       .  A
C217        H224   1.065       .  S
C218        S220   1.810       .  S
S219        H222   1.384       .  S
S220        H221   1.394       .  S
C225        C401   1.607       .  S
C225        C440   1.593       .  S
C226        C368   1.577       .  S
C226        C377   1.579       .  S
C226        C392   1.584       .  S
C226        C437   1.564       .  S
C227        C317   1.583       .  S
C227        C329   1.594       .  S
C227        C341   1.592       .  S
C227        C356   1.595       .  S
C228        C284   1.577       .  S
C228        C293   1.602       .  S
C228        C305   1.598       .  S
C228        C353   1.576       .  S
C229        O231   1.259       .  A
C229        C428   1.455       .  S
Tb230       O476   2.341   1_556  S
Tb230      O1597   2.315   1_445  S
Tb230       O684   2.348   1_546  S
Tb230       O241   2.389       .  S
Tb230       O254   2.357   1_556  S
Tb230       O251   2.349   1_545  S
O231       Tb235   2.329       .  S
O232        C243   1.261       .  A
O232       Tb683   2.349       .  S
C233        O238   1.268       .  A
C233        O254   1.263   1_556  A
C233        C320   1.485       .  S
O234        C250   1.263       .  A
Tb235       O680   2.349   1_545  S
Tb235      O1134   2.347       .  S
Tb235       O469   2.362   1_546  S
Tb235       O247   2.364   1_545  S
Tb235       O685   2.300   1_545  S
O236        C690   1.264   1_554  A
O236       Tb678   2.348   1_554  S
O237        C240   1.256       .  A
O237       Tb683   2.300       .  S
O238      Tb1131   2.347   1_455  S
O239        C249   1.280       .  A
C240        O253   1.263       .  A
C240        C416   1.470       .  S
O241       C1144   1.279       .  A
C242        O684   1.264   1_556  A
C242        O251   1.265       .  A
C242        C780   1.472       .  S
C243        C344   1.475       .  S
O245       Tb459   2.362       .  S
O246       C1145   1.274   1_455  A
O247        C248   1.276   1_565  A
C248       O1137   1.279       .  A
C248        C275   1.506       .  S
C249       O1142   1.274       .  A
C249        C274   1.504       .  S
C250        O700   1.256       .  A
C250        C404   1.457       .  S
O252        C698   1.256       .  A
O252       Tb454   2.341       .  S
O253      Tb1574   2.315       .  S
C255        O270   1.262       .  A
C255        O257   1.261       .  A
C255        C389   1.496       .  S
Tb256       O726   2.380       .  S
Tb256      O1623   2.335   1_445  S
Tb256       O710   2.366   1_545  S
Tb256       O272   2.417       .  S
Tb256       O267   2.355       .  S
Tb256       O260   2.340       .  S
Tb256       O280   2.351       .  S
Tb256       O277   2.395   1_545  S
O257       Tb261   2.365       .  S
O258        C269   1.263       .  A
O258       Tb709   2.376       .  S
C259        O264   1.267       .  A
C259        O280   1.265       .  A
C259        C281   1.495       .  S
O260        C276   1.259       .  A
Tb261       O706   2.376   1_545  S
Tb261       O265   2.351   1_545  S
Tb261       O270   2.375       .  S
Tb261      O1160   2.342       .  S
Tb261       O719   2.342   1_545  S
Tb261       O273   2.398       .  S
Tb261       O711   2.347   1_545  S
O262        C716   1.262       .  A
O262       Tb704   2.366       .  S
O263        C266   1.266       .  A
O263       Tb709   2.347       .  S
O264      Tb1157   2.342   1_455  S
O265        C275   1.277   1_565  A
C266        O279   1.268       .  A
C266        C380   1.474       .  S
O267       C1170   1.276   1_455  A
C268        O710   1.262       .  A
C268        O277   1.261       .  A
C268        C744   1.502       .  S
C269        O271   1.261       .  A
C269        C308   1.475       .  S
O271       Tb709   2.342       .  S
O272       C1171   1.286       .  A
O273        C274   1.281       .  A
C274       O1163   1.276       .  A
C275       O1168   1.286       .  A
C276        O726   1.262       .  A
C276        C365   1.473       .  S
O278        C724   1.262       .  A
O278       Tb704   2.380       .  S
O279      Tb1600   2.335       .  S
C281        C282   1.392       .  A
C281        C286   1.411       .  A
C282        C283   1.393       .  A
C282        H291   1.082       .  S
C283        C284   1.445       .  A
C283        S287   1.816       .  S
C284        C285   1.418       .  A
C285        C286   1.416       .  A
C285        H292   1.082       .  S
C286        S288   1.793       .  S
S287        H290   1.384       .  S
S288        H289   1.408       .  S
C293        C294   1.415       .  A
C293        C298   1.431       .  A
C294        C295   1.403       .  A
C294        H303   1.070       .  S
C295        C296   1.411       .  A
C295        S299   1.805       .  S
C296        C716   1.502       .  S
C296        C297   1.411       .  A
C297        C298   1.420       .  A
C297        H304   1.083       .  S
C298        S300   1.800       .  S
S299        H302   1.406       .  S
S300        H301   1.405       .  S
C305        C306   1.420       .  A
C305        C310   1.459       .  A
C306        C307   1.396       .  A
C306        H315   1.071       .  S
C307        C308   1.388       .  A
C307        S759   1.791       .  S
C308        C309   1.387       .  A
C309        C310   1.413       .  A
C309        H316   1.084       .  S
C310        S312   1.808       .  S
S311        C755   1.791   1_545  S
S311        H314   1.405       .  S
S312        H313   1.407       .  S
C317        C318   1.417       .  A
C318        C319   1.386       .  A
C318        H327   1.059       .  S
C319        C320   1.395       .  A
C319        S323   1.802       .  S
C321        C322   1.418       .  A
C321        H328   1.076       .  S
C322        S324   1.802       .  S
S323        H326   1.406       .  S
S324        H325   1.405       .  S
C329        C330   1.428       .  A
C329        C334   1.438       .  A
C330        C331   1.390       .  A
C330        H339   1.082       .  S
C331        C332   1.401       .  A
C331        S783   1.811       .  S
C332        C690   1.472       .  S
C332        C333   1.400       .  A
C333        C334   1.411       .  A
C333        H340   1.083       .  S
C334        S336   1.807       .  S
S335        C779   1.811   1_545  S
S335        H338   1.397       .  S
S336        H337   1.405       .  S
C341        C342   1.426       .  A
C341        C346   1.422       .  A
C342        C343   1.406       .  A
C342        H351   1.078       .  S
C343        C344   1.409       .  A
C343        S347   1.796   1_556  S
C344        C345   1.397       .  A
C345        C346   1.391       .  A
C345        H352   1.085       .  S
S347        H350   1.406       .  S
C353        C354   1.418       .  A
C353        C358   1.416       .  A
C354        C355   1.408       .  A
C354        H363   1.069       .  S
C355        C356   1.431       .  A
C355        S359   1.802       .  S
C356        C357   1.420       .  A
C357        C358   1.383       .  A
C357        H364   1.077       .  S
C358        S360   1.792       .  S
S359        H362   1.404       .  S
S360        H361   1.388       .  S
C365        C366   1.383       .  A
C365        C370   1.407       .  A
C366        C367   1.388       .  A
C366        H375   1.086       .  S
C367        C368   1.436       .  A
C367        S371   1.786       .  S
C368        C369   1.424       .  A
C369        C370   1.414       .  A
C369        H376   1.076       .  S
C370        S372   1.798       .  S
S371        H374   1.405       .  S
S372        H373   1.405       .  S
C377        C378   1.416       .  A
C377        C382   1.444       .  A
C378        C379   1.410       .  A
C378        H387   1.080       .  S
C379        C380   1.409       .  A
C379        S383   1.796       .  S
C380        C381   1.387       .  A
C381        C382   1.389       .  A
C381        H388   1.085       .  S
C382        S384   1.810       .  S
S383        H386   1.405       .  S
S384        H385   1.407       .  S
C389        C390   1.407       .  A
C389        C394   1.412       .  A
C390        C391   1.409       .  A
C390        H399   1.084       .  S
C391        C392   1.426       .  A
C391        S395   1.796       .  S
C392        C393   1.416       .  A
C393        C394   1.399       .  A
C393        H400   1.073       .  S
C394        S396   1.798       .  S
S395        H398   1.402       .  S
S396        H397   1.404       .  S
C401        C402   1.430       .  A
C402        C403   1.397       .  A
C402        H411   1.073       .  S
C403        C404   1.395       .  A
C403        S407   1.806       .  S
C405        C406   1.392       .  A
C405        H412   1.082       .  S
C406        S408   1.800       .  S
S407        H410   1.406       .  S
S408        H409   1.398       .  S
C413        C414   1.418   1_554  A
C414        C415   1.399       .  A
C414        H423   1.081       .  S
C415        C416   1.410       .  A
C415        S419   1.807       .  S
C417        C418   1.389       .  A
C417        H424   1.082       .  S
C418        S420   1.795       .  S
S419        H422   1.405       .  S
S420        H421   1.406       .  S
C425        C430   1.434   1_554  A
C426        C427   1.390       .  A
C426        H435   1.084       .  S
C427        S431   1.807       .  S
C428        C429   1.397       .  A
C429        C430   1.396       .  A
C429        H436   1.085       .  S
C430        S432   1.806       .  S
S431        H434   1.393   1_545  S
S432        H433   1.400       .  S
C437        C438   1.403       .  A
C437        C442   1.420       .  A
C438        C439   1.390       .  A
C438        H447   1.076       .  S
C439        C440   1.455       .  A
C439        S443   1.830       .  S
C440        C441   1.414       .  A
C441        C442   1.392       .  A
C441        H448   1.065       .  S
C442        S444   1.810       .  S
S443        H446   1.384       .  S
S444        H445   1.394       .  S
C449        C625   1.607       .  S
C449        C861   1.566       .  S
C449        C873   1.546       .  S
C449        C664   1.593       .  S
C450        C592   1.577       .  S
C450        C601   1.579       .  S
C450        C616   1.584       .  S
C450        C661   1.564       .  S
C451        C541   1.583       .  S
C451        C553   1.594       .  S
C451        C565   1.592       .  S
C451        C580   1.595       .  S
C452        C508   1.577       .  S
C452        C517   1.602       .  S
C452        C529   1.598       .  S
C452        C577   1.576       .  S
C453        O692   1.263       .  A
C453        O455   1.259       .  A
C453        C652   1.456       .  S
Tb454       O925   2.315   1_455  S
Tb454       O694   2.350       .  S
Tb454       O465   2.389       .  S
Tb454       O682   2.346       .  S
Tb454       O478   2.357       .  S
Tb454       O475   2.349       .  S
O455       Tb459   2.329       .  S
O456        C467   1.261       .  A
C457        O462   1.268       .  A
C457        O478   1.263       .  A
C457        C544   1.485       .  S
O458        C474   1.263   1_556  A
O458       Tb678   2.346       .  S
Tb459       O687   2.398       .  S
Tb459       O692   2.338       .  S
Tb459      O1358   2.347       .  S
Tb459       O471   2.364       .  S
O461        C464   1.256       .  A
O462      Tb1355   2.347   1_455  S
O463        C473   1.280       .  A
O463       Tb683   2.398   1_554  S
C464        O477   1.263       .  A
C464        C640   1.470       .  S
O465       C1368   1.278       .  A
C466        O475   1.265       .  A
C467        O693   1.262       .  A
C467        C568   1.475       .  S
O468        C677   1.263   1_554  A
O468       Tb683   2.338   1_554  S
O469        C691   1.262   1_554  A
O470       C1369   1.274   1_455  A
O470       Tb678   2.350   1_554  S
O471        C472   1.276       .  A
C472       O1361   1.278       .  A
C472        C499   1.506       .  S
C473       O1366   1.274       .  A
C473        C498   1.504       .  S
C474        C628   1.457       .  S
O477       Tb902   2.315   1_565  S
C479        O494   1.261       .  A
C479        O481   1.261       .  A
C479        C613   1.496       .  S
Tb480       O951   2.336   1_455  S
Tb480       O496   2.417       .  S
Tb480       O491   2.355       .  S
Tb480       O484   2.340       .  S
Tb480       O504   2.351       .  S
Tb480       O501   2.395       .  S
O481       Tb485   2.365       .  S
O482        C493   1.263       .  A
C483        O488   1.267       .  A
C483        O504   1.265       .  A
C483        C505   1.495       .  S
O484        C500   1.259       .  A
Tb485       O489   2.351       .  S
Tb485       O494   2.375       .  S
Tb485      O1384   2.342       .  S
Tb485       O497   2.398       .  S
O487        C490   1.266       .  A
O488      Tb1381   2.342   1_455  S
O489        C499   1.277       .  A
C490        O503   1.268       .  A
C490        C604   1.474       .  S
O491       C1394   1.276       .  A
C492        O501   1.261       .  A
C493        O495   1.261       .  A
C493        C532   1.475       .  S
O496       C1395   1.286       .  A
O497        C498   1.281       .  A
C498       O1387   1.276       .  A
C499       O1392   1.286       .  A
C500        C589   1.473       .  S
O503       Tb928   2.336   1_565  S
C505        C506   1.392       .  A
C505        C510   1.411       .  A
C506        C507   1.393       .  A
C506        H515   1.082       .  S
C507        C508   1.445       .  A
C507        S511   1.816       .  S
C508        C509   1.418       .  A
C509        C510   1.416       .  A
C509        H516   1.082       .  S
C510        S512   1.793       .  S
S511        H514   1.384       .  S
S512        H513   1.408       .  S
C517        C518   1.415       .  A
C517        C522   1.431       .  A
C518        C519   1.403       .  A
C518        H527   1.070       .  S
C519        C520   1.411       .  A
C519        S523   1.805       .  S
C520        C521   1.411       .  A
C521        C522   1.420       .  A
C521        H528   1.083       .  S
C522        S524   1.800       .  S
S523        H526   1.406       .  S
S524        H525   1.405       .  S
C529        C530   1.420       .  A
C529        C534   1.459       .  A
C530        C531   1.396       .  A
C530        H539   1.071       .  S
C531        C532   1.388       .  A
C532        C533   1.387       .  A
C533        C534   1.413       .  A
C533        H540   1.084       .  S
C534        S536   1.808       .  S
S535        H538   1.405       .  S
S536        H537   1.407       .  S
C541        C542   1.417       .  A
C541        C770   1.430       .  A
C542        C543   1.386       .  A
C542        H551   1.059       .  S
C543        C544   1.395       .  A
C543        S547   1.802       .  S
C544        C769   1.406       .  A
C545        C768   1.406   1_554  A
C545        C546   1.418   1_554  A
C545        H552   1.076       .  S
C546        C765   1.430       .  A
C546        S548   1.802   1_556  S
S547        H550   1.406       .  S
S548        H549   1.405       .  S
C553        C554   1.428       .  A
C553        C558   1.438       .  A
C554        C555   1.390       .  A
C554        H563   1.082       .  S
C555        C556   1.401       .  A
C556        C557   1.400       .  A
C557        C558   1.411       .  A
C557        H564   1.083       .  S
C558        S560   1.807       .  S
S559        H562   1.397       .  S
S560        H561   1.405       .  S
C565        C566   1.426       .  A
C565        C570   1.422       .  A
C566        C567   1.406       .  A
C566        H575   1.078       .  S
C567        C568   1.409       .  A
C567        S571   1.796       .  S
C568        C569   1.397       .  A
C569        C570   1.391       .  A
C569        H576   1.085       .  S
C570        S796   1.808       .  S
S571        H574   1.406       .  S
S572        C794   1.808       .  S
S572        H797   1.405   1_556  S
H573        S796   1.405       .  S
C577        C578   1.418       .  A
C577        C582   1.416       .  A
C578        C579   1.408       .  A
C578        H587   1.069       .  S
C579        C580   1.431       .  A
C579        S583   1.802       .  S
C580        C581   1.420       .  A
C581        C582   1.383       .  A
C581        H588   1.077       .  S
C582        S584   1.792       .  S
S583        H586   1.404       .  S
S584        H585   1.388       .  S
C589        C590   1.383       .  A
C589        C594   1.407       .  A
C590        C591   1.388       .  A
C590        H599   1.086       .  S
C591        C592   1.436       .  A
C591        S595   1.786       .  S
C592        C593   1.424       .  A
C593        C594   1.414       .  A
C593        H600   1.076       .  S
C594        S596   1.798       .  S
S595        H598   1.405       .  S
S596        H597   1.405       .  S
C601        C602   1.416       .  A
C601        C606   1.444       .  A
C602        C603   1.410       .  A
C602        H611   1.080       .  S
C603        C604   1.409       .  A
C603        S607   1.796       .  S
C604        C605   1.387       .  A
C605        C606   1.389       .  A
C605        H612   1.085       .  S
C606        S608   1.810       .  S
S607        H610   1.405       .  S
S608        H609   1.407       .  S
C613        C614   1.407       .  A
C613        C618   1.412       .  A
C614        C615   1.409       .  A
C614        H623   1.084       .  S
C615        C616   1.426       .  A
C615        S619   1.796       .  S
C616        C617   1.416       .  A
C617        C618   1.399       .  A
C617        H624   1.073       .  S
C618        S620   1.798       .  S
S619        H622   1.402       .  S
S620        H621   1.404       .  S
C625        C626   1.430       .  A
C625        C854   1.436   1_554  A
C626        C627   1.397       .  A
C626        H635   1.073       .  S
C627        C628   1.395       .  A
C627        S631   1.806       .  S
C628        C853   1.389   1_554  A
C629        C852   1.389       .  A
C629        C630   1.392       .  A
C629        H636   1.082       .  S
C630        C849   1.436       .  A
C630        S632   1.800       .  S
S631        H634   1.406       .  S
S632        H633   1.398       .  S
C637        C673   1.566       .  S
C637        C638   1.418       .  A
C637        C866   1.430       .  A
C638        C639   1.399       .  A
C638        H647   1.081       .  S
C639        C640   1.410       .  A
C639        S643   1.807       .  S
C640        C865   1.390       .  A
C641        C864   1.390   1_554  A
C641        C642   1.389       .  A
C641        H648   1.082       .  S
C642        C861   1.430       .  A
C642        S644   1.795       .  S
S643        H646   1.405       .  S
S644        H645   1.406       .  S
C649        C673   1.546       .  S
C649        C874   1.419       .  A
C649        C654   1.434       .  A
C650        C873   1.419       .  A
C650        C651   1.390       .  A
C650        H659   1.084       .  S
C651        C876   1.406   1_554  A
C651        S655   1.807       .  S
C652        C875   1.406       .  A
C652        C653   1.397       .  A
C653        C654   1.396       .  A
C653        H660   1.085       .  S
C654        S656   1.806       .  S
S655        H658   1.393       .  S
S656        H657   1.400       .  S
C661        C662   1.403       .  A
C661        C666   1.420       .  A
C662        C663   1.390       .  A
C662        H671   1.076       .  S
C663        C664   1.455       .  A
C663        S667   1.830       .  S
C664        C665   1.414       .  A
C665        C666   1.392       .  A
C665        H672   1.065       .  S
C666        S668   1.810       .  S
S667        H670   1.384       .  S
S668        H669   1.394       .  S
C673        C849   1.607       .  S
C673        C888   1.593       .  S
C674        C816   1.577       .  S
C674        C825   1.579       .  S
C674        C840   1.584       .  S
C674        C885   1.564       .  S
C675        C765   1.583       .  S
C675        C777   1.594       .  S
C675        C789   1.592       .  S
C675        C804   1.595       .  S
C676        C732   1.577       .  S
C676        C741   1.602       .  S
C676        C753   1.598       .  S
C676        C801   1.576       .  S
C677        O679   1.259       .  A
C677        C876   1.455       .  S
Tb678      O1149   2.315   1_455  S
Tb678       O689   2.389       .  S
Tb678       O702   2.357   1_556  S
Tb678       O699   2.349       .  S
O679       Tb683   2.329       .  S
O680        C691   1.261       .  A
C681        O686   1.268       .  A
C681        O702   1.263   1_556  A
C681        C768   1.485       .  S
O682        C698   1.263       .  A
Tb683      O1582   2.347       .  S
Tb683       O695   2.364       .  S
O685        C688   1.256       .  A
O686      Tb1579   2.347   1_455  S
O687        C697   1.280       .  A
C688        O701   1.263       .  A
C688        C864   1.470       .  S
O689       C1592   1.279       .  A
C690        O699   1.265       .  A
C691        C792   1.475       .  S
O694       C1593   1.274   1_455  A
O695        C696   1.276       .  A
C696       O1585   1.279       .  A
C696        C723   1.506       .  S
C697       O1590   1.274       .  A
C697        C722   1.504       .  S
C698        C852   1.457       .  S
O701      Tb1126   2.315   1_565  S
C703        O718   1.262       .  A
C703        O705   1.261       .  A
C703        C837   1.496       .  S
Tb704      O1175   2.335   1_455  S
Tb704       O720   2.417       .  S
Tb704       O715   2.355       .  S
Tb704       O708   2.340       .  S
Tb704       O728   2.351       .  S
Tb704       O725   2.395       .  S
O705       Tb709   2.365       .  S
O706        C717   1.263       .  A
C707        O712   1.267       .  A
C707        O728   1.265       .  A
C707        C729   1.495       .  S
O708        C724   1.259       .  A
Tb709       O713   2.351       .  S
Tb709       O718   2.375       .  S
Tb709      O1608   2.342       .  S
Tb709       O721   2.398       .  S
O711        C714   1.266       .  A
O712      Tb1605   2.342   1_455  S
O713        C723   1.277       .  A
C714        O727   1.268       .  A
C714        C828   1.474       .  S
O715       C1618   1.276   1_455  A
C716        O725   1.261       .  A
C717        O719   1.261       .  A
C717        C756   1.475       .  S
O720       C1619   1.286       .  A
O721        C722   1.281       .  A
C722       O1611   1.276       .  A
C723       O1616   1.286       .  A
C724        C813   1.473       .  S
O727      Tb1152   2.335   1_565  S
C729        C730   1.392       .  A
C729        C734   1.411       .  A
C730        C731   1.393       .  A
C730        H739   1.082       .  S
C731        C732   1.445       .  A
C731        S735   1.816       .  S
C732        C733   1.418       .  A
C733        C734   1.416       .  A
C733        H740   1.082       .  S
C734        S736   1.793       .  S
S735        H738   1.384       .  S
S736        H737   1.408       .  S
C741        C742   1.415       .  A
C741        C746   1.431       .  A
C742        C743   1.403       .  A
C742        H751   1.070       .  S
C743        C744   1.411       .  A
C743        S747   1.805       .  S
C744        C745   1.411       .  A
C745        C746   1.420       .  A
C745        H752   1.083       .  S
C746        S748   1.800       .  S
S747        H750   1.406       .  S
S748        H749   1.405       .  S
C753        C754   1.420       .  A
C753        C758   1.459       .  A
C754        C755   1.396       .  A
C754        H763   1.071       .  S
C755        C756   1.388       .  A
C756        C757   1.387       .  A
C757        C758   1.413       .  A
C757        H764   1.084       .  S
C758        S760   1.808       .  S
S759        H762   1.405       .  S
S760        H761   1.407       .  S
C765        C766   1.417       .  A
C766        C767   1.386       .  A
C766        H775   1.059       .  S
C767        C768   1.395       .  A
C767        S771   1.802       .  S
C769        C770   1.418       .  A
C769        H776   1.076       .  S
C770        S772   1.802       .  S
S771        H774   1.406       .  S
S772        H773   1.405       .  S
C777        C778   1.428       .  A
C777        C782   1.438       .  A
C778        C779   1.390       .  A
C778        H787   1.082       .  S
C779        C780   1.401       .  A
C780        C781   1.400       .  A
C781        C782   1.411       .  A
C781        H788   1.083       .  S
C782        S784   1.807       .  S
S783        H786   1.397       .  S
S784        H785   1.405       .  S
C789        C790   1.426       .  A
C789        C794   1.422       .  A
C790        C791   1.406       .  A
C790        H799   1.078       .  S
C791        C792   1.409       .  A
C791        S795   1.796   1_556  S
C792        C793   1.397       .  A
C793        C794   1.391       .  A
C793        H800   1.085       .  S
S795        H798   1.406       .  S
C801        C802   1.418       .  A
C801        C806   1.416       .  A
C802        C803   1.408       .  A
C802        H811   1.069       .  S
C803        C804   1.431       .  A
C803        S807   1.802       .  S
C804        C805   1.420       .  A
C805        C806   1.383       .  A
C805        H812   1.077       .  S
C806        S808   1.792       .  S
S807        H810   1.404       .  S
S808        H809   1.388       .  S
C813        C814   1.383       .  A
C813        C818   1.407       .  A
C814        C815   1.388       .  A
C814        H823   1.086       .  S
C815        C816   1.436       .  A
C815        S819   1.786       .  S
C816        C817   1.424       .  A
C817        C818   1.414       .  A
C817        H824   1.076       .  S
C818        S820   1.798       .  S
S819        H822   1.405       .  S
S820        H821   1.405       .  S
C825        C826   1.416       .  A
C825        C830   1.444       .  A
C826        C827   1.410       .  A
C826        H835   1.080       .  S
C827        C828   1.409       .  A
C827        S831   1.796       .  S
C828        C829   1.387       .  A
C829        C830   1.389       .  A
C829        H836   1.085       .  S
C830        S832   1.810       .  S
S831        H834   1.405       .  S
S832        H833   1.407       .  S
C837        C838   1.407       .  A
C837        C842   1.412       .  A
C838        C839   1.409       .  A
C838        H847   1.084       .  S
C839        C840   1.426       .  A
C839        S843   1.796       .  S
C840        C841   1.416       .  A
C841        C842   1.399       .  A
C841        H848   1.073       .  S
C842        S844   1.798       .  S
S843        H846   1.402       .  S
S844        H845   1.404       .  S
C849        C850   1.430       .  A
C850        C851   1.397       .  A
C850        H859   1.073       .  S
C851        C852   1.395       .  A
C851        S855   1.806       .  S
C853        C854   1.392       .  A
C853        H860   1.082       .  S
C854        S856   1.800       .  S
S855        H858   1.406       .  S
S856        H857   1.398       .  S
C861        C862   1.418   1_554  A
C862        C863   1.399       .  A
C862        H871   1.081       .  S
C863        C864   1.410       .  A
C863        S867   1.807       .  S
C865        C866   1.389       .  A
C865        H872   1.082       .  S
C866        S868   1.795       .  S
S867        H870   1.405       .  S
S868        H869   1.406       .  S
C873        C878   1.434   1_554  A
C874        C875   1.390       .  A
C874        H883   1.084       .  S
C875        S879   1.807       .  S
C876        C877   1.397       .  A
C877        C878   1.396       .  A
C877        H884   1.085       .  S
C878        S880   1.806       .  S
S879        H882   1.393       .  S
S880        H881   1.400       .  S
C885        C886   1.403       .  A
C885        C890   1.420       .  A
C886        C887   1.390       .  A
C886        H895   1.076       .  S
C887        C888   1.455       .  A
C887        S891   1.830       .  S
C888        C889   1.414       .  A
C889        C890   1.392       .  A
C889        H896   1.065       .  S
C890        S892   1.810       .  S
S891        H894   1.384       .  S
S892        H893   1.394       .  S
C897       C1073   1.607       .  S
C897       C1309   1.566       .  S
C897       C1321   1.546       .  S
C897       C1112   1.593       .  S
C898       C1040   1.577       .  S
C898       C1049   1.579       .  S
C898       C1064   1.584       .  S
C898       C1109   1.564       .  S
C899        C989   1.583       .  S
C899       C1001   1.594       .  S
C899       C1013   1.592       .  S
C899       C1028   1.595       .  S
C900        C956   1.577       .  S
C900        C965   1.602       .  S
C900        C977   1.598       .  S
C900       C1025   1.576       .  S
C901       O1140   1.263       .  A
C901        O903   1.259       .  A
C901       C1100   1.456       .  S
Tb902      O1596   2.341       .  S
Tb902      O1356   2.348   1_545  S
Tb902      O1142   2.350       .  S
Tb902       O913   2.389       .  S
Tb902      O1130   2.346       .  S
Tb902       O926   2.357       .  S
Tb902       O923   2.349   1_545  S
O903       Tb907   2.329       .  S
O904        C915   1.261       .  A
O904      Tb1355   2.349       .  S
C905        O910   1.268       .  A
C905        O926   1.263       .  A
C905        C992   1.485       .  S
O906        C922   1.263   1_556  A
O906      Tb1126   2.346       .  S
Tb907      O1352   2.349   1_545  S
Tb907      O1135   2.398       .  S
Tb907      O1140   2.338       .  S
Tb907      O1589   2.362   1_545  S
Tb907       O919   2.364   1_545  S
Tb907      O1357   2.300   1_545  S
O908       C1362   1.264       .  A
O908      Tb1350   2.348       .  S
O909        C912   1.256       .  A
O909      Tb1355   2.300       .  S
O911        C921   1.280       .  A
O911      Tb1131   2.398   1_554  S
C912        O925   1.263       .  A
C912       C1088   1.470       .  S
C914       O1356   1.264       .  A
C914        O923   1.265       .  A
C914       C1452   1.472       .  S
C915       O1141   1.262       .  A
C915       C1016   1.475       .  S
O916       C1125   1.263   1_554  A
O916      Tb1131   2.338   1_554  S
O917       C1139   1.262   1_554  A
O917      Tb1579   2.362   1_554  S
O918      Tb1126   2.350   1_554  S
O919        C920   1.276   1_665  A
C920        C947   1.506       .  S
C921        C946   1.504   1_655  S
C922       O1372   1.256       .  A
C922       C1076   1.457       .  S
O924       C1370   1.256       .  A
O924      Tb1574   2.341   1_554  S
C927        O942   1.261       .  A
C927        O929   1.261       .  A
C927       C1061   1.496       .  S
Tb928      O1398   2.380       .  S
Tb928      O1382   2.366   1_545  S
Tb928       O944   2.417       .  S
Tb928       O939   2.355       .  S
Tb928       O932   2.340       .  S
Tb928       O952   2.351       .  S
Tb928       O949   2.395   1_545  S
O929       Tb933   2.365       .  S
O930        C941   1.263       .  A
O930      Tb1381   2.376       .  S
C931        O936   1.267       .  A
C931        O952   1.265       .  A
C931        C953   1.495       .  S
O932        C948   1.259       .  A
Tb933      O1378   2.376   1_545  S
Tb933       O937   2.351   1_545  S
Tb933       O942   2.375       .  S
Tb933      O1391   2.342   1_545  S
Tb933       O945   2.398       .  S
Tb933      O1383   2.347   1_545  S
O934       C1388   1.262       .  A
O934      Tb1376   2.366       .  S
O935        C938   1.266       .  A
O935      Tb1381   2.347       .  S
O937        C947   1.277   1_665  A
C938        O951   1.268       .  A
C938       C1052   1.474       .  S
C940       O1382   1.262       .  A
C940        O949   1.261       .  A
C940       C1416   1.502       .  S
C941        O943   1.261       .  A
C941        C980   1.475       .  S
O943      Tb1381   2.342       .  S
O945        C946   1.281   1_655  A
C948       O1398   1.262       .  A
C948       C1037   1.473       .  S
O950       C1396   1.262       .  A
O950      Tb1376   2.380       .  S
C953        C954   1.392       .  A
C953        C958   1.411       .  A
C954        C955   1.393       .  A
C954        H963   1.082       .  S
C955        C956   1.445       .  A
C955        S959   1.816       .  S
C956        C957   1.418       .  A
C957        C958   1.416       .  A
C957        H964   1.082       .  S
C958        S960   1.793       .  S
S959        H962   1.384       .  S
S960        H961   1.408       .  S
C965        C966   1.415       .  A
C965        C970   1.431       .  A
C966        C967   1.403       .  A
C966        H975   1.070       .  S
C967        C968   1.411       .  A
C967        S971   1.805       .  S
C968       C1388   1.502       .  S
C968        C969   1.411       .  A
C969        C970   1.420       .  A
C969        H976   1.083       .  S
C970        S972   1.800       .  S
S971        H974   1.406       .  S
S972        H973   1.405       .  S
C977        C978   1.420       .  A
C977        C982   1.459       .  A
C978        C979   1.396       .  A
C978        H987   1.071       .  S
C979        C980   1.388       .  A
C979       S1431   1.791       .  S
C980        C981   1.387       .  A
C981        C982   1.413       .  A
C981        H988   1.084       .  S
C982        S984   1.808       .  S
S983       C1427   1.791   1_545  S
S983        H986   1.405       .  S
S984        H985   1.407       .  S
C989        C990   1.417       .  A
C989       C1218   1.430       .  A
C990        C991   1.386       .  A
C990        H999   1.059       .  S
C991        C992   1.395       .  A
C991        S995   1.802       .  S
C992       C1217   1.406       .  A
C993       C1216   1.406   1_554  A
C993        C994   1.418   1_554  A
C993       H1000   1.076       .  S
C994       C1213   1.430       .  A
C994        S996   1.802   1_556  S
S995        H998   1.406       .  S
S996        H997   1.405       .  S
C1001      C1002   1.428       .  A
C1001      C1006   1.438       .  A
C1002      C1003   1.390       .  A
C1002      H1011   1.082       .  S
C1003      C1004   1.401       .  A
C1003      S1455   1.811       .  S
C1004      C1362   1.472       .  S
C1004      C1005   1.400       .  A
C1005      C1006   1.411       .  A
C1005      H1012   1.083       .  S
C1006      S1008   1.807       .  S
S1007      C1451   1.811   1_545  S
S1007      H1010   1.397       .  S
S1008      H1009   1.405       .  S
C1013      C1014   1.426       .  A
C1013      C1018   1.422       .  A
C1014      C1015   1.406       .  A
C1014      H1023   1.078       .  S
C1015      C1016   1.409       .  A
C1015      S1019   1.796       .  S
C1016      C1017   1.397       .  A
C1017      C1018   1.391       .  A
C1017      H1024   1.085       .  S
C1018      S1244   1.808       .  S
S1019      H1022   1.406       .  S
S1020      C1242   1.808       .  S
S1020      H1245   1.405   1_556  S
H1021      S1244   1.405       .  S
C1025      C1026   1.418       .  A
C1025      C1030   1.416       .  A
C1026      C1027   1.407       .  A
C1026      H1035   1.069       .  S
C1027      C1028   1.431       .  A
C1027      S1031   1.802       .  S
C1028      C1029   1.420       .  A
C1029      C1030   1.383       .  A
C1029      H1036   1.077       .  S
C1030      S1032   1.792       .  S
S1031      H1034   1.404       .  S
S1032      H1033   1.388       .  S
C1037      C1038   1.383       .  A
C1037      C1042   1.407       .  A
C1038      C1039   1.388       .  A
C1038      H1047   1.086       .  S
C1039      C1040   1.436       .  A
C1039      S1043   1.786       .  S
C1040      C1041   1.424       .  A
C1041      C1042   1.414       .  A
C1041      H1048   1.076       .  S
C1042      S1044   1.798       .  S
S1043      H1046   1.405       .  S
S1044      H1045   1.405       .  S
C1049      C1050   1.416       .  A
C1049      C1054   1.444       .  A
C1050      C1051   1.410       .  A
C1050      H1059   1.080       .  S
C1051      C1052   1.409       .  A
C1051      S1055   1.796       .  S
C1052      C1053   1.387       .  A
C1053      C1054   1.389       .  A
C1053      H1060   1.085       .  S
C1054      S1056   1.810       .  S
S1055      H1058   1.405       .  S
S1056      H1057   1.407       .  S
C1061      C1062   1.407       .  A
C1061      C1066   1.412       .  A
C1062      C1063   1.409       .  A
C1062      H1071   1.084       .  S
C1063      C1064   1.426       .  A
C1063      S1067   1.796       .  S
C1064      C1065   1.416       .  A
C1065      C1066   1.399       .  A
C1065      H1072   1.073       .  S
C1066      S1068   1.798       .  S
S1067      H1070   1.402       .  S
S1068      H1069   1.404       .  S
C1073      C1074   1.430       .  A
C1073      C1302   1.436   1_554  A
C1074      C1075   1.397       .  A
C1074      H1083   1.073       .  S
C1075      C1076   1.395       .  A
C1075      S1079   1.806       .  S
C1076      C1301   1.389   1_554  A
C1077      C1300   1.389       .  A
C1077      C1078   1.392       .  A
C1077      H1084   1.082       .  S
C1078      C1297   1.436       .  A
C1078      S1080   1.800       .  S
S1079      H1082   1.406       .  S
S1080      H1081   1.398       .  S
C1085      C1121   1.566       .  S
C1085      C1086   1.418       .  A
C1085      C1314   1.430       .  A
C1086      C1087   1.399       .  A
C1086      H1095   1.081       .  S
C1087      C1088   1.410       .  A
C1087      S1091   1.807       .  S
C1088      C1313   1.390       .  A
C1089      C1312   1.390   1_554  A
C1089      C1090   1.389       .  A
C1089      H1096   1.082       .  S
C1090      C1309   1.430       .  A
C1090      S1092   1.795       .  S
S1091      H1094   1.405       .  S
S1092      H1093   1.406       .  S
C1097      C1121   1.546       .  S
C1097      C1322   1.419       .  A
C1097      C1102   1.434       .  A
C1098      C1321   1.419       .  A
C1098      C1099   1.390       .  A
C1098      H1107   1.084       .  S
C1099      C1324   1.406   1_554  A
C1099      S1103   1.807       .  S
C1100      C1323   1.406       .  A
C1100      C1101   1.397       .  A
C1101      C1102   1.396       .  A
C1101      H1108   1.085       .  S
C1102      S1104   1.806       .  S
S1103      H1106   1.393   1_545  S
S1104      H1105   1.400       .  S
C1109      C1110   1.403       .  A
C1109      C1114   1.420       .  A
C1110      C1111   1.390       .  A
C1110      H1119   1.076       .  S
C1111      C1112   1.455       .  A
C1111      S1115   1.830       .  S
C1112      C1113   1.414       .  A
C1113      C1114   1.392       .  A
C1113      H1120   1.065       .  S
C1114      S1116   1.810       .  S
S1115      H1118   1.384       .  S
S1116      H1117   1.394       .  S
C1121      C1297   1.607       .  S
C1121      C1336   1.593       .  S
C1122      C1264   1.577       .  S
C1122      C1273   1.579       .  S
C1122      C1288   1.584       .  S
C1122      C1333   1.564       .  S
C1123      C1213   1.583       .  S
C1123      C1225   1.594       .  S
C1123      C1237   1.592       .  S
C1123      C1252   1.595       .  S
C1124      C1180   1.577       .  S
C1124      C1189   1.602       .  S
C1124      C1201   1.598       .  S
C1124      C1249   1.576       .  S
C1125      O1127   1.259       .  A
C1125      C1324   1.455       .  S
Tb1126     O1372   2.341   1_556  S
Tb1126     O1580   2.348   1_546  S
Tb1126     O1137   2.389       .  S
Tb1126     O1150   2.357   1_556  S
Tb1126     O1147   2.349   1_545  S
O1127     Tb1131   2.329       .  S
O1128      C1139   1.261       .  A
O1128     Tb1579   2.349       .  S
C1129      O1134   1.268       .  A
C1129      O1150   1.263   1_556  A
C1129      C1216   1.485       .  S
O1130      C1146   1.263       .  A
Tb1131     O1576   2.349   1_545  S
Tb1131     O1365   2.362   1_546  S
Tb1131     O1143   2.364   1_545  S
Tb1131     O1581   2.300   1_545  S
O1132      C1586   1.264   1_554  A
O1132     Tb1574   2.348   1_554  S
O1133      C1136   1.256       .  A
O1133     Tb1579   2.300       .  S
O1135      C1145   1.280       .  A
C1136      O1149   1.263       .  A
C1136      C1312   1.470       .  S
C1138      O1580   1.264   1_556  A
C1138      O1147   1.265       .  A
C1138      C1676   1.472       .  S
C1139      C1240   1.475       .  S
O1141     Tb1355   2.362       .  S
O1143      C1144   1.276   1_665  A
C1144      C1171   1.506       .  S
C1145      C1170   1.504       .  S
C1146      O1596   1.256       .  A
C1146      C1300   1.457       .  S
O1148      C1594   1.256       .  A
O1148     Tb1350   2.341       .  S
C1151      O1166   1.262       .  A
C1151      O1153   1.261       .  A
C1151      C1285   1.496       .  S
Tb1152     O1622   2.380       .  S
Tb1152     O1606   2.366   1_545  S
Tb1152     O1168   2.417       .  S
Tb1152     O1163   2.355       .  S
Tb1152     O1156   2.340       .  S
Tb1152     O1176   2.351       .  S
Tb1152     O1173   2.395   1_545  S
O1153     Tb1157   2.365       .  S
O1154      C1165   1.263       .  A
O1154     Tb1605   2.376       .  S
C1155      O1160   1.267       .  A
C1155      O1176   1.265       .  A
C1155      C1177   1.495       .  S
O1156      C1172   1.259       .  A
Tb1157     O1602   2.376   1_545  S
Tb1157     O1161   2.351   1_545  S
Tb1157     O1166   2.375       .  S
Tb1157     O1615   2.342   1_545  S
Tb1157     O1169   2.398       .  S
Tb1157     O1607   2.347   1_545  S
O1158      C1612   1.262       .  A
O1158     Tb1600   2.366       .  S
O1159      C1162   1.266       .  A
O1159     Tb1605   2.347       .  S
O1161      C1171   1.277   1_665  A
C1162      O1175   1.268       .  A
C1162      C1276   1.474       .  S
C1164      O1606   1.262       .  A
C1164      O1173   1.261       .  A
C1164      C1640   1.502       .  S
C1165      O1167   1.261       .  A
C1165      C1204   1.475       .  S
O1167     Tb1605   2.342       .  S
O1169      C1170   1.281       .  A
C1172      O1622   1.262       .  A
C1172      C1261   1.473       .  S
O1174      C1620   1.262       .  A
O1174     Tb1600   2.380       .  S
C1177      C1178   1.392       .  A
C1177      C1182   1.411       .  A
C1178      C1179   1.393       .  A
C1178      H1187   1.082       .  S
C1179      C1180   1.445       .  A
C1179      S1183   1.816       .  S
C1180      C1181   1.418       .  A
C1181      C1182   1.416       .  A
C1181      H1188   1.082       .  S
C1182      S1184   1.793       .  S
S1183      H1186   1.384       .  S
S1184      H1185   1.408       .  S
C1189      C1190   1.415       .  A
C1189      C1194   1.431       .  A
C1190      C1191   1.403       .  A
C1190      H1199   1.070       .  S
C1191      C1192   1.411       .  A
C1191      S1195   1.805       .  S
C1192      C1612   1.502       .  S
C1192      C1193   1.411       .  A
C1193      C1194   1.420       .  A
C1193      H1200   1.083       .  S
C1194      S1196   1.800       .  S
S1195      H1198   1.406       .  S
S1196      H1197   1.405       .  S
C1201      C1202   1.420       .  A
C1201      C1206   1.459       .  A
C1202      C1203   1.396       .  A
C1202      H1211   1.071       .  S
C1203      C1204   1.388       .  A
C1203      S1655   1.791       .  S
C1204      C1205   1.387       .  A
C1205      C1206   1.413       .  A
C1205      H1212   1.084       .  S
C1206      S1208   1.808       .  S
S1207      C1651   1.791   1_545  S
S1207      H1210   1.405       .  S
S1208      H1209   1.407       .  S
C1213      C1214   1.417       .  A
C1214      C1215   1.386       .  A
C1214      H1223   1.059       .  S
C1215      C1216   1.395       .  A
C1215      S1219   1.802       .  S
C1217      C1218   1.418       .  A
C1217      H1224   1.076       .  S
C1218      S1220   1.802       .  S
S1219      H1222   1.406       .  S
S1220      H1221   1.405       .  S
C1225      C1226   1.428       .  A
C1225      C1230   1.438       .  A
C1226      C1227   1.390       .  A
C1226      H1235   1.082       .  S
C1227      C1228   1.401       .  A
C1227      S1679   1.811       .  S
C1228      C1586   1.472       .  S
C1228      C1229   1.400       .  A
C1229      C1230   1.411       .  A
C1229      H1236   1.083       .  S
C1230      S1232   1.807       .  S
S1231      C1675   1.811   1_545  S
S1231      H1234   1.397       .  S
S1232      H1233   1.405       .  S
C1237      C1238   1.426       .  A
C1237      C1242   1.422       .  A
C1238      C1239   1.406       .  A
C1238      H1247   1.078       .  S
C1239      C1240   1.409       .  A
C1239      S1243   1.796   1_556  S
C1240      C1241   1.397       .  A
C1241      C1242   1.391       .  A
C1241      H1248   1.085       .  S
S1243      H1246   1.406       .  S
C1249      C1250   1.418       .  A
C1249      C1254   1.416       .  A
C1250      C1251   1.408       .  A
C1250      H1259   1.069       .  S
C1251      C1252   1.431       .  A
C1251      S1255   1.802       .  S
C1252      C1253   1.420       .  A
C1253      C1254   1.383       .  A
C1253      H1260   1.077       .  S
C1254      S1256   1.792       .  S
S1255      H1258   1.404       .  S
S1256      H1257   1.388       .  S
C1261      C1262   1.383       .  A
C1261      C1266   1.407       .  A
C1262      C1263   1.388       .  A
C1262      H1271   1.086       .  S
C1263      C1264   1.436       .  A
C1263      S1267   1.786       .  S
C1264      C1265   1.424       .  A
C1265      C1266   1.414       .  A
C1265      H1272   1.076       .  S
C1266      S1268   1.798       .  S
S1267      H1270   1.405       .  S
S1268      H1269   1.405       .  S
C1273      C1274   1.416       .  A
C1273      C1278   1.444       .  A
C1274      C1275   1.410       .  A
C1274      H1283   1.080       .  S
C1275      C1276   1.409       .  A
C1275      S1279   1.796       .  S
C1276      C1277   1.387       .  A
C1277      C1278   1.389       .  A
C1277      H1284   1.085       .  S
C1278      S1280   1.810       .  S
S1279      H1282   1.405       .  S
S1280      H1281   1.407       .  S
C1285      C1286   1.407       .  A
C1285      C1290   1.412       .  A
C1286      C1287   1.409       .  A
C1286      H1295   1.084       .  S
C1287      C1288   1.426       .  A
C1287      S1291   1.796       .  S
C1288      C1289   1.416       .  A
C1289      C1290   1.399       .  A
C1289      H1296   1.073       .  S
C1290      S1292   1.798       .  S
S1291      H1294   1.402       .  S
S1292      H1293   1.404       .  S
C1297      C1298   1.430       .  A
C1298      C1299   1.397       .  A
C1298      H1307   1.073       .  S
C1299      C1300   1.395       .  A
C1299      S1303   1.806       .  S
C1301      C1302   1.392       .  A
C1301      H1308   1.082       .  S
C1302      S1304   1.800       .  S
S1303      H1306   1.406       .  S
S1304      H1305   1.398       .  S
C1309      C1310   1.418   1_554  A
C1310      C1311   1.399       .  A
C1310      H1319   1.081       .  S
C1311      C1312   1.410       .  A
C1311      S1315   1.807       .  S
C1313      C1314   1.389       .  A
C1313      H1320   1.082       .  S
C1314      S1316   1.795       .  S
S1315      H1318   1.405       .  S
S1316      H1317   1.406       .  S
C1321      C1326   1.434   1_554  A
C1322      C1323   1.390       .  A
C1322      H1331   1.084       .  S
C1323      S1327   1.807       .  S
C1324      C1325   1.397       .  A
C1325      C1326   1.396       .  A
C1325      H1332   1.085       .  S
C1326      S1328   1.806       .  S
S1327      H1330   1.393   1_545  S
S1328      H1329   1.400       .  S
C1333      C1334   1.403       .  A
C1333      C1338   1.420       .  A
C1334      C1335   1.390       .  A
C1334      H1343   1.076       .  S
C1335      C1336   1.455       .  A
C1335      S1339   1.830       .  S
C1336      C1337   1.414       .  A
C1337      C1338   1.392       .  A
C1337      H1344   1.065       .  S
C1338      S1340   1.810       .  S
S1339      H1342   1.384       .  S
S1340      H1341   1.394       .  S
C1345      C1521   1.607       .  S
C1345      C1757   1.566       .  S
C1345      C1769   1.546       .  S
C1345      C1560   1.593       .  S
C1346      C1488   1.577       .  S
C1346      C1497   1.579       .  S
C1346      C1512   1.584       .  S
C1346      C1557   1.564       .  S
C1347      C1437   1.583       .  S
C1347      C1449   1.594       .  S
C1347      C1461   1.592       .  S
C1347      C1476   1.595       .  S
C1348      C1404   1.577       .  S
C1348      C1413   1.602       .  S
C1348      C1425   1.598       .  S
C1348      C1473   1.576       .  S
C1349      O1588   1.263       .  A
C1349      O1351   1.259       .  A
C1349      C1548   1.456       .  S
Tb1350     O1590   2.350       .  S
Tb1350     O1361   2.389       .  S
Tb1350     O1578   2.346       .  S
Tb1350     O1374   2.357       .  S
Tb1350     O1371   2.349       .  S
O1351     Tb1355   2.329       .  S
O1352      C1363   1.261       .  A
C1353      O1358   1.268       .  A
C1353      O1374   1.263       .  A
C1353      C1440   1.485       .  S
O1354      C1370   1.263   1_556  A
O1354     Tb1574   2.346       .  S
Tb1355     O1583   2.398       .  S
Tb1355     O1588   2.338       .  S
Tb1355     O1367   2.364       .  S
O1357      C1360   1.256       .  A
O1359      C1369   1.280       .  A
O1359     Tb1579   2.398   1_554  S
C1360      O1373   1.263       .  A
C1360      C1536   1.470       .  S
C1362      O1371   1.265       .  A
C1363      O1589   1.262       .  A
C1363      C1464   1.475       .  S
O1364      C1573   1.263   1_554  A
O1364     Tb1579   2.338   1_554  S
O1365      C1587   1.262   1_554  A
O1366     Tb1574   2.350   1_554  S
O1367      C1368   1.276   1_655  A
C1368      C1395   1.506       .  S
C1369      C1394   1.504   1_655  S
C1370      C1524   1.457       .  S
C1375      O1390   1.261       .  A
C1375      O1377   1.261       .  A
C1375      C1509   1.496       .  S
Tb1376     O1392   2.417       .  S
Tb1376     O1387   2.355       .  S
Tb1376     O1380   2.340       .  S
Tb1376     O1400   2.351       .  S
Tb1376     O1397   2.395       .  S
O1377     Tb1381   2.365       .  S
O1378      C1389   1.263       .  A
C1379      O1384   1.267       .  A
C1379      O1400   1.265       .  A
C1379      C1401   1.495       .  S
O1380      C1396   1.259       .  A
Tb1381     O1385   2.351       .  S
Tb1381     O1390   2.375       .  S
Tb1381     O1393   2.398       .  S
O1383      C1386   1.266       .  A
O1385      C1395   1.277   1_655  A
C1386      O1399   1.268       .  A
C1386      C1500   1.474       .  S
C1388      O1397   1.261       .  A
C1389      O1391   1.261       .  A
C1389      C1428   1.475       .  S
O1393      C1394   1.281   1_655  A
C1396      C1485   1.473       .  S
C1401      C1402   1.392       .  A
C1401      C1406   1.411       .  A
C1402      C1403   1.393       .  A
C1402      H1411   1.082       .  S
C1403      C1404   1.445       .  A
C1403      S1407   1.816       .  S
C1404      C1405   1.418       .  A
C1405      C1406   1.416       .  A
C1405      H1412   1.082       .  S
C1406      S1408   1.793       .  S
S1407      H1410   1.384       .  S
S1408      H1409   1.408       .  S
C1413      C1414   1.415       .  A
C1413      C1418   1.431       .  A
C1414      C1415   1.403       .  A
C1414      H1423   1.070       .  S
C1415      C1416   1.411       .  A
C1415      S1419   1.805       .  S
C1416      C1417   1.411       .  A
C1417      C1418   1.420       .  A
C1417      H1424   1.083       .  S
C1418      S1420   1.800       .  S
S1419      H1422   1.406       .  S
S1420      H1421   1.405       .  S
C1425      C1426   1.420       .  A
C1425      C1430   1.459       .  A
C1426      C1427   1.396       .  A
C1426      H1435   1.071       .  S
C1427      C1428   1.388       .  A
C1428      C1429   1.387       .  A
C1429      C1430   1.413       .  A
C1429      H1436   1.084       .  S
C1430      S1432   1.808       .  S
S1431      H1434   1.405       .  S
S1432      H1433   1.407       .  S
C1437      C1438   1.417       .  A
C1437      C1666   1.430       .  A
C1438      C1439   1.386       .  A
C1438      H1447   1.059       .  S
C1439      C1440   1.395       .  A
C1439      S1443   1.802       .  S
C1440      C1665   1.406       .  A
C1441      C1664   1.406   1_554  A
C1441      C1442   1.418   1_554  A
C1441      H1448   1.076       .  S
C1442      C1661   1.430       .  A
C1442      S1444   1.802   1_556  S
S1443      H1446   1.406       .  S
S1444      H1445   1.405       .  S
C1449      C1450   1.428       .  A
C1449      C1454   1.438       .  A
C1450      C1451   1.390       .  A
C1450      H1459   1.082       .  S
C1451      C1452   1.401       .  A
C1452      C1453   1.400       .  A
C1453      C1454   1.411       .  A
C1453      H1460   1.083       .  S
C1454      S1456   1.807       .  S
S1455      H1458   1.397       .  S
S1456      H1457   1.405       .  S
C1461      C1462   1.426       .  A
C1461      C1466   1.422       .  A
C1462      C1463   1.406       .  A
C1462      H1471   1.078       .  S
C1463      C1464   1.409       .  A
C1463      S1467   1.796       .  S
C1464      C1465   1.397       .  A
C1465      C1466   1.391       .  A
C1465      H1472   1.085       .  S
C1466      S1692   1.808       .  S
S1467      H1470   1.406       .  S
S1468      C1690   1.808       .  S
S1468      H1693   1.405   1_556  S
H1469      S1692   1.405       .  S
C1473      C1474   1.418       .  A
C1473      C1478   1.416       .  A
C1474      C1475   1.408       .  A
C1474      H1483   1.069       .  S
C1475      C1476   1.431       .  A
C1475      S1479   1.802       .  S
C1476      C1477   1.420       .  A
C1477      C1478   1.383       .  A
C1477      H1484   1.077       .  S
C1478      S1480   1.792       .  S
S1479      H1482   1.404       .  S
S1480      H1481   1.388       .  S
C1485      C1486   1.383       .  A
C1485      C1490   1.407       .  A
C1486      C1487   1.388       .  A
C1486      H1495   1.086       .  S
C1487      C1488   1.436       .  A
C1487      S1491   1.786       .  S
C1488      C1489   1.424       .  A
C1489      C1490   1.414       .  A
C1489      H1496   1.076       .  S
C1490      S1492   1.798       .  S
S1491      H1494   1.405       .  S
S1492      H1493   1.405       .  S
C1497      C1498   1.416       .  A
C1497      C1502   1.444       .  A
C1498      C1499   1.410       .  A
C1498      H1507   1.080       .  S
C1499      C1500   1.409       .  A
C1499      S1503   1.796       .  S
C1500      C1501   1.387       .  A
C1501      C1502   1.389       .  A
C1501      H1508   1.085       .  S
C1502      S1504   1.810       .  S
S1503      H1506   1.405       .  S
S1504      H1505   1.407       .  S
C1509      C1510   1.407       .  A
C1509      C1514   1.412       .  A
C1510      C1511   1.409       .  A
C1510      H1519   1.084       .  S
C1511      C1512   1.426       .  A
C1511      S1515   1.796       .  S
C1512      C1513   1.416       .  A
C1513      C1514   1.399       .  A
C1513      H1520   1.073       .  S
C1514      S1516   1.798       .  S
S1515      H1518   1.402       .  S
S1516      H1517   1.404       .  S
C1521      C1522   1.430       .  A
C1521      C1750   1.436   1_554  A
C1522      C1523   1.397       .  A
C1522      H1531   1.073       .  S
C1523      C1524   1.395       .  A
C1523      S1527   1.806       .  S
C1524      C1749   1.389   1_554  A
C1525      C1748   1.389       .  A
C1525      C1526   1.392       .  A
C1525      H1532   1.082       .  S
C1526      C1745   1.436       .  A
C1526      S1528   1.800       .  S
S1527      H1530   1.406       .  S
S1528      H1529   1.398       .  S
C1533      C1569   1.566       .  S
C1533      C1534   1.418       .  A
C1533      C1762   1.430       .  A
C1534      C1535   1.399       .  A
C1534      H1543   1.081       .  S
C1535      C1536   1.410       .  A
C1535      S1539   1.807       .  S
C1536      C1761   1.390       .  A
C1537      C1760   1.390   1_554  A
C1537      C1538   1.389       .  A
C1537      H1544   1.082       .  S
C1538      C1757   1.430       .  A
C1538      S1540   1.795       .  S
S1539      H1542   1.405       .  S
S1540      H1541   1.406       .  S
C1545      C1569   1.546       .  S
C1545      C1770   1.419       .  A
C1545      C1550   1.434       .  A
C1546      C1769   1.419       .  A
C1546      C1547   1.390       .  A
C1546      H1555   1.084       .  S
C1547      C1772   1.406   1_554  A
C1547      S1551   1.807       .  S
C1548      C1771   1.406       .  A
C1548      C1549   1.397       .  A
C1549      C1550   1.396       .  A
C1549      H1556   1.085       .  S
C1550      S1552   1.806       .  S
S1551      H1554   1.393       .  S
S1552      H1553   1.400       .  S
C1557      C1558   1.403       .  A
C1557      C1562   1.420       .  A
C1558      C1559   1.390       .  A
C1558      H1567   1.076       .  S
C1559      C1560   1.455       .  A
C1559      S1563   1.830       .  S
C1560      C1561   1.414       .  A
C1561      C1562   1.392       .  A
C1561      H1568   1.065       .  S
C1562      S1564   1.810       .  S
S1563      H1566   1.384       .  S
S1564      H1565   1.394       .  S
C1569      C1745   1.607       .  S
C1569      C1784   1.593       .  S
C1570      C1712   1.577       .  S
C1570      C1721   1.579       .  S
C1570      C1736   1.584       .  S
C1570      C1781   1.564       .  S
C1571      C1661   1.583       .  S
C1571      C1673   1.594       .  S
C1571      C1685   1.592       .  S
C1571      C1700   1.595       .  S
C1572      C1628   1.577       .  S
C1572      C1637   1.602       .  S
C1572      C1649   1.598       .  S
C1572      C1697   1.576       .  S
C1573      O1575   1.259       .  A
C1573      C1772   1.455       .  S
Tb1574     O1585   2.389       .  S
Tb1574     O1598   2.357   1_556  S
Tb1574     O1595   2.349       .  S
O1575     Tb1579   2.329       .  S
O1576      C1587   1.261       .  A
C1577      O1582   1.268       .  A
C1577      O1598   1.263   1_556  A
C1577      C1664   1.485       .  S
O1578      C1594   1.263       .  A
Tb1579     O1591   2.364       .  S
O1581      C1584   1.256       .  A
O1583      C1593   1.280       .  A
C1584      O1597   1.263       .  A
C1584      C1760   1.470       .  S
C1586      O1595   1.265       .  A
C1587      C1688   1.475       .  S
O1591      C1592   1.276   1_655  A
C1592      C1619   1.506       .  S
C1593      C1618   1.504       .  S
C1594      C1748   1.457       .  S
C1599      O1614   1.262       .  A
C1599      O1601   1.261       .  A
C1599      C1733   1.496       .  S
Tb1600     O1616   2.417       .  S
Tb1600     O1611   2.355       .  S
Tb1600     O1604   2.340       .  S
Tb1600     O1624   2.351       .  S
Tb1600     O1621   2.395       .  S
O1601     Tb1605   2.365       .  S
O1602      C1613   1.263       .  A
C1603      O1608   1.267       .  A
C1603      O1624   1.265       .  A
C1603      C1625   1.495       .  S
O1604      C1620   1.259       .  A
Tb1605     O1609   2.351       .  S
Tb1605     O1614   2.375       .  S
Tb1605     O1617   2.398       .  S
O1607      C1610   1.266       .  A
O1609      C1619   1.277   1_655  A
C1610      O1623   1.268       .  A
C1610      C1724   1.474       .  S
C1612      O1621   1.261       .  A
C1613      O1615   1.261       .  A
C1613      C1652   1.475       .  S
O1617      C1618   1.281       .  A
C1620      C1709   1.473       .  S
C1625      C1626   1.392       .  A
C1625      C1630   1.411       .  A
C1626      C1627   1.393       .  A
C1626      H1635   1.082       .  S
C1627      C1628   1.445       .  A
C1627      S1631   1.816       .  S
C1628      C1629   1.418       .  A
C1629      C1630   1.416       .  A
C1629      H1636   1.082       .  S
C1630      S1632   1.793       .  S
S1631      H1634   1.384       .  S
S1632      H1633   1.408       .  S
C1637      C1638   1.415       .  A
C1637      C1642   1.431       .  A
C1638      C1639   1.403       .  A
C1638      H1647   1.070       .  S
C1639      C1640   1.411       .  A
C1639      S1643   1.805       .  S
C1640      C1641   1.411       .  A
C1641      C1642   1.420       .  A
C1641      H1648   1.083       .  S
C1642      S1644   1.800       .  S
S1643      H1646   1.406       .  S
S1644      H1645   1.405       .  S
C1649      C1650   1.420       .  A
C1649      C1654   1.459       .  A
C1650      C1651   1.396       .  A
C1650      H1659   1.071       .  S
C1651      C1652   1.388       .  A
C1652      C1653   1.387       .  A
C1653      C1654   1.413       .  A
C1653      H1660   1.084       .  S
C1654      S1656   1.808       .  S
S1655      H1658   1.405       .  S
S1656      H1657   1.407       .  S
C1661      C1662   1.417       .  A
C1662      C1663   1.386       .  A
C1662      H1671   1.059       .  S
C1663      C1664   1.395       .  A
C1663      S1667   1.802       .  S
C1665      C1666   1.418       .  A
C1665      H1672   1.076       .  S
C1666      S1668   1.802       .  S
S1667      H1670   1.406       .  S
S1668      H1669   1.405       .  S
C1673      C1674   1.428       .  A
C1673      C1678   1.438       .  A
C1674      C1675   1.390       .  A
C1674      H1683   1.082       .  S
C1675      C1676   1.401       .  A
C1676      C1677   1.400       .  A
C1677      C1678   1.411       .  A
C1677      H1684   1.083       .  S
C1678      S1680   1.807       .  S
S1679      H1682   1.397       .  S
S1680      H1681   1.405       .  S
C1685      C1686   1.426       .  A
C1685      C1690   1.422       .  A
C1686      C1687   1.406       .  A
C1686      H1695   1.078       .  S
C1687      C1688   1.409       .  A
C1687      S1691   1.796   1_556  S
C1688      C1689   1.397       .  A
C1689      C1690   1.391       .  A
C1689      H1696   1.085       .  S
S1691      H1694   1.406       .  S
C1697      C1698   1.418       .  A
C1697      C1702   1.416       .  A
C1698      C1699   1.408       .  A
C1698      H1707   1.069       .  S
C1699      C1700   1.431       .  A
C1699      S1703   1.802       .  S
C1700      C1701   1.420       .  A
C1701      C1702   1.383       .  A
C1701      H1708   1.077       .  S
C1702      S1704   1.792       .  S
S1703      H1706   1.404       .  S
S1704      H1705   1.388       .  S
C1709      C1710   1.383       .  A
C1709      C1714   1.407       .  A
C1710      C1711   1.388       .  A
C1710      H1719   1.086       .  S
C1711      C1712   1.436       .  A
C1711      S1715   1.786       .  S
C1712      C1713   1.424       .  A
C1713      C1714   1.414       .  A
C1713      H1720   1.076       .  S
C1714      S1716   1.798       .  S
S1715      H1718   1.405       .  S
S1716      H1717   1.405       .  S
C1721      C1722   1.416       .  A
C1721      C1726   1.444       .  A
C1722      C1723   1.410       .  A
C1722      H1731   1.080       .  S
C1723      C1724   1.409       .  A
C1723      S1727   1.796       .  S
C1724      C1725   1.387       .  A
C1725      C1726   1.389       .  A
C1725      H1732   1.085       .  S
C1726      S1728   1.810       .  S
S1727      H1730   1.405       .  S
S1728      H1729   1.407       .  S
C1733      C1734   1.407       .  A
C1733      C1738   1.412       .  A
C1734      C1735   1.409       .  A
C1734      H1743   1.084       .  S
C1735      C1736   1.426       .  A
C1735      S1739   1.796       .  S
C1736      C1737   1.416       .  A
C1737      C1738   1.399       .  A
C1737      H1744   1.073       .  S
C1738      S1740   1.798       .  S
S1739      H1742   1.402       .  S
S1740      H1741   1.404       .  S
C1745      C1746   1.430       .  A
C1746      C1747   1.397       .  A
C1746      H1755   1.073       .  S
C1747      C1748   1.395       .  A
C1747      S1751   1.806       .  S
C1749      C1750   1.392       .  A
C1749      H1756   1.082       .  S
C1750      S1752   1.800       .  S
S1751      H1754   1.406       .  S
S1752      H1753   1.398       .  S
C1757      C1758   1.418   1_554  A
C1758      C1759   1.399       .  A
C1758      H1767   1.081       .  S
C1759      C1760   1.410       .  A
C1759      S1763   1.807       .  S
C1761      C1762   1.389       .  A
C1761      H1768   1.082       .  S
C1762      S1764   1.795       .  S
S1763      H1766   1.405       .  S
S1764      H1765   1.406       .  S
C1769      C1774   1.434   1_554  A
C1770      C1771   1.390       .  A
C1770      H1779   1.084       .  S
C1771      S1775   1.807       .  S
C1772      C1773   1.397       .  A
C1773      C1774   1.396       .  A
C1773      H1780   1.085       .  S
C1774      S1776   1.806       .  S
S1775      H1778   1.393       .  S
S1776      H1777   1.400       .  S
C1781      C1782   1.403       .  A
C1781      C1786   1.420       .  A
C1782      C1783   1.390       .  A
C1782      H1791   1.076       .  S
C1783      C1784   1.455       .  A
C1783      S1787   1.830       .  S
C1784      C1785   1.414       .  A
C1785      C1786   1.392       .  A
C1785      H1792   1.065       .  S
C1786      S1788   1.810       .  S
S1787      H1790   1.384       .  S
S1788      H1789   1.394       .  S
