geometry optimzed in LAMMPS
_audit_creation_date              2020-11-30 
_audit_creation_method            'lammps2cif' 
_symmetry_space_group_name_H-M    'P1' 
_symmetry_Int_Tables_number       1 
_symmetry_cell_setting            triclinic 
loop_ 
_symmetry_equiv_pos_as_xyz 
  x,y,z 
_cell_length_a                    48.66395141441243 
_cell_length_b                    48.44500734862946 
_cell_length_c                    48.725217178982255 
_cell_angle_alpha                 89.70517823097408 
_cell_angle_beta                  89.5540367654208 
_cell_angle_gamma                 90.24783772571848 
loop_ 
_atom_site_label 
_atom_site_type_symbol 
_atom_site_fract_x 
_atom_site_fract_y 
_atom_site_fract_z 
_atom_site_charge 
O1          O  0.05281160  0.50444326  0.45540333    -0.73160
O2          O  0.06228824  0.47087789  0.53388007    -0.74150
O3          O  0.05086232  0.54171602  0.51742171    -0.62760
O4          O  0.06551705  0.45971261  0.50882644    -0.71170
O5          O  0.10320648  0.47098785  0.48618834    -0.70730
O6          O  0.09570010  0.54496231  0.51246482    -0.61980
O7          O  0.10073716  0.49591924  0.53983965    -0.74490
O8          O  0.09516071  0.52045657  0.46217545    -0.73270
Cu9        Cu  0.02922198  0.49723612  0.50704647     1.04560
Cu10       Cu  0.09825772  0.50808069  0.50052849     1.04330
C11         C  0.07568885  0.51430849  0.44612439     0.93030
C12         C  0.08311709  0.47904058  0.54959749     0.92170
C13         C  0.07301031  0.55608625  0.51743973     0.84320
C14         C  0.08630840  0.45267888  0.49316435     0.90590
O15         O  0.52992880  0.94126297  0.53430989    -0.73160
O16         O  0.55077810  0.94503457  0.45763679    -0.74150
O17         O  0.58113721  0.94172363  0.50374411    -0.62760
O18         O  0.50239321  0.94650812  0.48616098    -0.71170
O19         O  0.49852708  0.99146101  0.49399574    -0.70730
O20         O  0.57661345  0.98074307  0.52735712    -0.61980
O21         O  0.56422504  0.98832609  0.46171229    -0.74490
O22         O  0.55432551  0.97914738  0.54193589    -0.73270
Cu23       Cu  0.54123143  0.94387226  0.49546408     1.04560
Cu24       Cu  0.54883583  0.01371692  0.50207110     1.04330
C25         C  0.53838005  0.95904038  0.55109898     0.93030
C26         C  0.56176202  0.96621382  0.44747945     0.92170
C27         C  0.59220956  0.96017260  0.51828122     0.84320
C28         C  0.48779472  0.96805960  0.48772205     0.90590
O29         O  0.99080667  0.54281903  0.49469823    -0.73160
O30         O  0.98743600  0.46648939  0.51800875    -0.74150
O31         O  0.99463057  0.51526331  0.54373725    -0.62760
O32         O  0.98625554  0.49529195  0.46588321    -0.71170
O33         O  0.02559475  0.47193500  0.46965137    -0.70730
O34         O  0.03984371  0.50819718  0.54469224    -0.61980
O35         O  0.02480268  0.45815364  0.49286887    -0.74490
O36         O  0.03222123  0.53821838  0.47665228    -0.73270
Cu37       Cu  0.98998669  0.50507487  0.50545666     1.04560
Cu38       Cu  0.05920075  0.49954661  0.49417676     1.04330
C39         C  0.01014300  0.55236016  0.48035827     0.93030
C40         C  0.00488036  0.44955551  0.50926062     0.92170
C41         C  0.01696792  0.51362564  0.55685133     0.84320
C42         C  0.00466999  0.48063344  0.45461515     0.90590
O43         O  0.54941841  0.45938638  0.05401441    -0.73160
O44         O  0.53598390  0.53878200  0.05483011    -0.74150
O45         O  0.50324787  0.49185066  0.05137820    -0.62760
O46         O  0.58096150  0.50444422  0.06769525    -0.71170
O47         O  0.57905338  0.50247583  0.02392588    -0.70730
O48         O  0.50259956  0.48185807  0.00733230    -0.61980
O49         O  0.53520629  0.54441919  0.00878716    -0.74490
O50         O  0.57213112  0.46933055  0.01495579    -0.73270
Cu51       Cu  0.54247266  0.49853781  0.05599041     1.04560
Cu52       Cu  0.54618721  0.49510081  0.98392497     1.04330
C53         C  0.56436429  0.45161365  0.03407160     0.93030
C54         C  0.53289806  0.55384304  0.03356120     0.92170
C55         C  0.49046033  0.48367585  0.03060294     0.84320
C56         C  0.59351161  0.50583424  0.04550360     0.90590
N57         N  0.24907082  0.43680114  0.05293459    -0.27510
N58         N  0.23764964  0.42877252  0.07636921    -0.35370
C59         C  0.21033142  0.43176367  0.07469751     0.00830
C60         C  0.20355045  0.44061704  0.04843690     0.06860
C61         C  0.22894732  0.44420325  0.03544242    -0.06240
H62         H  0.19665747  0.42752650  0.09171436     0.07520
H63         H  0.23256586  0.45102625  0.01455290     0.08720
Cu64       Cu  0.25766814  0.40827157  0.10819770     0.44170
Cu65       Cu  0.29167376  0.43735926  0.04654786     0.41990
Cu66       Cu  0.32800191  0.39595322  0.09721257     0.43880
N67         N  0.27951624  0.37971729  0.13153496    -0.34900
N68         N  0.30561599  0.37439787  0.12632432    -0.29150
C69         C  0.31402990  0.35364226  0.14257809    -0.05250
C70         C  0.29218344  0.34555180  0.15905464     0.06960
C71         C  0.27059644  0.36256159  0.15159840     0.00760
H72         H  0.33454788  0.34513136  0.14240550     0.08410
H73         H  0.24979110  0.36195978  0.15957263     0.07490
N74         N  0.34712588  0.42127886  0.06876015    -0.36350
N75         N  0.33451226  0.43623411  0.04990523    -0.28530
C76         C  0.35359572  0.45101947  0.03584853    -0.03770
C77         C  0.37917996  0.44489708  0.04656378     0.04850
C78         C  0.37422793  0.42622297  0.06743374     0.02940
H79         H  0.34911094  0.46589889  0.01988394     0.08040
H80         H  0.38920536  0.41736131  0.08117088     0.06880
N81         N  0.09897838  0.43863189  0.70786460    -0.27510
N82         N  0.11360731  0.41873940  0.69641598    -0.35370
C83         C  0.11160255  0.42029109  0.66905143     0.00830
C84         C  0.09512825  0.44232328  0.66234588     0.06860
C85         C  0.08720366  0.45344675  0.68753934    -0.06240
H86         H  0.12262851  0.40708230  0.65495465     0.07520
H87         H  0.07425151  0.47121627  0.69087281     0.08720
Cu88       Cu  0.13907705  0.39163468  0.71625843     0.44170
Cu89       Cu  0.09779684  0.44527538  0.75074169     0.41990
Cu90       Cu  0.15132067  0.40455346  0.78467149     0.43880
N91         N  0.16839092  0.37024911  0.73758251    -0.34900
N92         N  0.17379971  0.37595430  0.76339452    -0.29150
C93         C  0.19450574  0.35995920  0.77201485    -0.05250
C94         C  0.20230321  0.34329424  0.75043022     0.06960
C95         C  0.18533103  0.35027384  0.72889882     0.00760
H96         H  0.20293919  0.36022484  0.79249109     0.08410
H97         H  0.18549677  0.34179555  0.70840016     0.07490
N98         N  0.12433590  0.42996404  0.80476131    -0.36350
N99         N  0.10445436  0.44468817  0.79358787    -0.28530
C100        C  0.08995143  0.45664407  0.81414055    -0.03770
C101        C  0.10148732  0.44885570  0.83910189     0.04850
C102        C  0.12307441  0.43197380  0.83210990     0.02940
H103        H  0.07165997  0.46889346  0.81123348     0.08040
H104        H  0.13642582  0.42099193  0.84602641     0.06880
N105        N  0.98064568  0.44463180  0.29742229    -0.27510
N106        N  0.96717604  0.42390826  0.30931636    -0.35370
C107        C  0.96963468  0.42577740  0.33662456     0.00830
C108        C  0.98505632  0.44886085  0.34244544     0.06860
C109        C  0.99182271  0.46042184  0.31718957    -0.06240
H110        H  0.96036766  0.41158444  0.35124487     0.07520
H111        H  0.00417254  0.47870504  0.31346408     0.08720
Cu112      Cu  0.94409608  0.39411197  0.28987518     0.44170
Cu113      Cu  0.98423945  0.44977262  0.25486373     0.41990
Cu114      Cu  0.94583467  0.39558979  0.21938393     0.43880
N115        N  0.91832602  0.36938483  0.26718404    -0.34900
N116        N  0.91804162  0.37096748  0.24018226    -0.29150
C117        C  0.89819861  0.35431773  0.23053009    -0.05250
C118        C  0.88573561  0.34133442  0.25271286     0.06960
C119        C  0.89904512  0.35125625  0.27564373     0.00760
H120        H  0.89358447  0.35150198  0.20903752     0.08410
H121        H  0.89470144  0.34610636  0.29687499     0.07490
N122        N  0.97379564  0.42194267  0.20106190    -0.36350
N123        N  0.98632385  0.44311613  0.21253606    -0.28530
C124        C  0.00011856  0.45727261  0.19275575    -0.03770
C125        C  0.99643484  0.44388011  0.16773250     0.04850
C126        C  0.97982119  0.42145210  0.17432725     0.02940
H127        H  0.01106520  0.47631463  0.19640132     0.08040
H128        H  0.97191553  0.40584664  0.16069560     0.06880
O129        O  0.02649681  0.44432568  0.03876479    -0.73160
O130        O  0.04925096  0.44310400  0.96116738    -0.74150
O131        O  0.07548277  0.44087058  0.01367570    -0.62760
O132        O  0.00105611  0.44398039  0.98936172    -0.71170
O133        O  0.00357325  0.48828845  0.98010935    -0.70730
O134        O  0.08441651  0.47986999  0.99172664    -0.61980
O135        O  0.07194447  0.48288858  0.96762690    -0.74490
O136        O  0.03501519  0.48901850  0.04478839    -0.73270
Cu137      Cu  0.03804415  0.44347956  0.00057755     1.04560
Cu138      Cu  0.04415812  0.51397462  0.99513999     1.04330
C139        C  0.02776471  0.46516998  0.05419756     0.93030
C140        C  0.06469201  0.46199259  0.95150082     0.92170
C141        C  0.09267331  0.45912067  0.00693549     0.84320
C142        C  0.99048318  0.46523882  0.97949644     0.90590
N143        N  0.74593086  0.56159930  0.06047218    -0.27510
N144        N  0.73370530  0.58067487  0.07553034    -0.35370
C145        C  0.70632792  0.57756907  0.07390027     0.00830
C146        C  0.70071989  0.55560916  0.05684364     0.06860
C147        C  0.72635942  0.54575650  0.04894271    -0.06240
H148        H  0.69165267  0.58954134  0.08555892     0.07520
H149        H  0.73049193  0.52792653  0.03634041     0.08720
Cu150      Cu  0.75359175  0.60856747  0.10042958     0.44170
Cu151      Cu  0.78876216  0.55686930  0.05793859     0.41990
Cu152      Cu  0.82435795  0.59772168  0.10937999     0.43880
N153        N  0.77665480  0.63145860  0.12744330    -0.34900
N154        N  0.80292699  0.62650794  0.13165496    -0.29150
C155        C  0.81235684  0.64374838  0.15094709    -0.05250
C156        C  0.79091518  0.66050682  0.15901303     0.06960
C157        C  0.76857796  0.65224447  0.14371507     0.00760
H158        H  0.83332681  0.64434366  0.15814405     0.08410
H159        H  0.74794441  0.66043700  0.14457494     0.07490
N160        N  0.84375288  0.57234377  0.08175341    -0.36350
N161        N  0.83161624  0.55756898  0.06253123    -0.28530
C162        C  0.85130503  0.54515887  0.04731073    -0.03770
C163        C  0.87676906  0.55298439  0.05743708     0.04850
C164        C  0.87105376  0.56991302  0.07934576     0.02940
H165        H  0.84744132  0.53226714  0.02967975     0.08040
H166        H  0.88573640  0.58034092  0.09229142     0.06880
N167        N  0.98454454  0.55581822  0.70939063    -0.27510
N168        N  0.96822560  0.57204040  0.69497771    -0.35370
C169        C  0.97154038  0.56631906  0.66822242     0.00830
C170        C  0.99089521  0.54569549  0.66593004     0.06860
C171        C  0.99885182  0.53953438  0.69227754    -0.06240
H172        H  0.96066146  0.57637251  0.65169776     0.07520
H173        H  0.01358537  0.52414718  0.69860745     0.08720
Cu174      Cu  0.94191019  0.60094350  0.71207984     0.44170
Cu175      Cu  0.98595492  0.55534748  0.75147728     0.41990
Cu176      Cu  0.93690232  0.59886743  0.78594883     0.43880
N177        N  0.91585587  0.62610202  0.73459728    -0.34900
N178        N  0.91316444  0.62431846  0.76157078    -0.29150
C179        C  0.89384283  0.64219204  0.76996738    -0.05250
C180        C  0.88421753  0.65616282  0.74723075     0.06960
C181        C  0.89864565  0.64556768  0.72513983     0.00760
H182        H  0.88764541  0.64513412  0.79112023     0.08410
H183        H  0.89645414  0.65119646  0.70375463     0.07490
N184        N  0.96498801  0.57416655  0.80609949    -0.36350
N185        N  0.98273441  0.55796625  0.79340947    -0.28530
C186        C  0.99857414  0.54533400  0.81206951    -0.03770
C187        C  0.99061866  0.55439764  0.83766603     0.04850
C188        C  0.96924102  0.57253038  0.83324635     0.02940
H189        H  0.01525539  0.53142915  0.80727341     0.08040
H190        H  0.95797248  0.58406168  0.84856794     0.06880
N191        N  0.09706736  0.55951884  0.29023394    -0.27510
N192        N  0.11374182  0.57668950  0.30308959    -0.35370
C193        C  0.11212886  0.57194193  0.33018455     0.00830
C194        C  0.09333735  0.55101138  0.33484862     0.06860
C195        C  0.08415676  0.54347612  0.30907591    -0.06240
H196        H  0.12429363  0.58253956  0.34538874     0.07520
H197        H  0.07014130  0.52681349  0.30430577     0.08720
Cu198      Cu  0.13984423  0.60475687  0.28421827     0.44170
Cu199      Cu  0.09519328  0.55722424  0.24755163     0.41990
Cu200      Cu  0.15009524  0.59633151  0.21284796     0.43880
N201        N  0.16721612  0.62873862  0.26190510    -0.34900
N202        N  0.17188442  0.62476963  0.23549858    -0.29150
C203        C  0.19150406  0.64243175  0.22681819    -0.05250
C204        C  0.19930741  0.65843350  0.24885792     0.06960
C205        C  0.18347512  0.64928946  0.27077813     0.00760
H206        H  0.19924527  0.64371921  0.20597376     0.08410
H207        H  0.18408675  0.65661292  0.29170433     0.07490
N208        N  0.12261849  0.57074444  0.19315978    -0.36350
N209        N  0.10185195  0.55762148  0.20519507    -0.28530
C210        C  0.08667717  0.54531125  0.18571053    -0.03770
C211        C  0.09893296  0.55044940  0.16040633     0.04850
C212        C  0.12147086  0.56680632  0.16595016     0.02940
H213        H  0.06791136  0.53388692  0.18965177     0.08040
H214        H  0.13529671  0.57630903  0.15115448     0.06880
O215        O  0.04525713  0.55479250  0.03990669    -0.73160
O216        O  0.02589205  0.55132303  0.96166839    -0.74150
O217        O  0.99882436  0.55113687  0.01008069    -0.62760
O218        O  0.07406618  0.55739371  0.98787431    -0.71170
O219        O  0.08274767  0.51908005  0.01105462    -0.70730
O220        O  0.00168367  0.50710962  0.02139326    -0.61980
O221        O  0.03622845  0.50703024  0.95626353    -0.74490
O222        O  0.06916451  0.51593303  0.03380803    -0.73270
Cu223      Cu  0.03603869  0.55331168  0.00005701     1.04560
Cu224      Cu  0.04386656  0.48308036  0.00605847     1.04330
C225        C  0.05982306  0.53578551  0.05015850     0.93030
C226        C  0.02865361  0.53042544  0.94641034     0.92170
C227        C  0.98813805  0.52995041  0.02055703     0.84320
C228        C  0.09100529  0.53927975  0.99492014     0.90590
N229        N  0.74973324  0.44691245  0.93677002    -0.27510
N230        N  0.73656467  0.42595542  0.92542652    -0.35370
C231        C  0.70938850  0.43028537  0.92765974     0.00830
C232        C  0.70491121  0.45517411  0.94091364     0.06860
C233        C  0.73112851  0.46519266  0.94619028    -0.06240
H234        H  0.69391905  0.41664517  0.91934734     0.07520
H235        H  0.73651335  0.48495492  0.95485666     0.08720
Cu236      Cu  0.75485661  0.39393679  0.90344539     0.44170
Cu237      Cu  0.79246301  0.45107115  0.93750766     0.41990
Cu238      Cu  0.82603230  0.40356246  0.89161803     0.43880
N239        N  0.77713713  0.36949864  0.87615514    -0.34900
N240        N  0.80346220  0.37414562  0.87113293    -0.29150
C241        C  0.81218097  0.35718323  0.85118254    -0.05250
C242        C  0.79033569  0.34081784  0.84331872     0.06960
C243        C  0.76840088  0.34906496  0.85963550     0.00760
H244        H  0.83290117  0.35687297  0.84298219     0.08410
H245        H  0.74749310  0.34143812  0.85891226     0.07490
N246        N  0.84671668  0.43216916  0.91499739    -0.36350
N247        N  0.83504627  0.44954980  0.93230290    -0.28530
C248        C  0.85499080  0.46325890  0.94581895    -0.03770
C249        C  0.88028570  0.45399321  0.93631228     0.05370
C250        C  0.87407670  0.43426847  0.91693369     0.02940
H251        H  0.85137132  0.47751997  0.96246020     0.08040
H252        H  0.88846721  0.42121581  0.90608607     0.06880
N253        N  0.24716812  0.55976051  0.94776512    -0.27510
N254        N  0.23496940  0.57744625  0.93112576    -0.35370
C255        C  0.20804866  0.57785374  0.93689923     0.00830
C256        C  0.20257760  0.55941331  0.95806872     0.06860
C257        C  0.22797943  0.54810821  0.96433131    -0.06240
H258        H  0.19344094  0.59070805  0.92621568     0.07520
H259        H  0.23226468  0.53212908  0.97923023     0.08720
Cu260      Cu  0.25368439  0.60092661  0.90066084     0.44170
Cu261      Cu  0.28949173  0.55364091  0.94794004     0.41990
Cu262      Cu  0.32426383  0.60682087  0.90629368     0.43880
N263        N  0.27618911  0.62684133  0.87519658    -0.34900
N264        N  0.30286367  0.63008899  0.87850295    -0.29150
C265        C  0.31231415  0.64916978  0.86067569    -0.05250
C266        C  0.29043183  0.65812139  0.84517364     0.06960
C267        C  0.26780856  0.64350521  0.85478946     0.00760
H268        H  0.33354962  0.65568502  0.85888509     0.08410
H269        H  0.24679649  0.64529447  0.84793188     0.07490
N270        N  0.34374504  0.57836226  0.93052586    -0.36350
N271        N  0.33196265  0.55835181  0.94500302    -0.28530
C272        C  0.35182183  0.54270134  0.95625804    -0.03770
C273        C  0.37712306  0.55368795  0.94845203     0.04850
C274        C  0.37103562  0.57614744  0.93217293     0.02940
H275        H  0.34805753  0.52421753  0.96827044     0.08040
H276        H  0.38545159  0.58963610  0.92161108     0.06880
O277        O  0.57544197  0.48487563  0.94291385    -0.73160
O278        O  0.49935140  0.50541612  0.94468456    -0.74150
O279        O  0.54701876  0.53640142  0.94302578    -0.62760
O280        O  0.52736195  0.45744140  0.94707759    -0.71170
O281        O  0.53476404  0.45595265  0.99207689    -0.70730
O282        O  0.56941522  0.53209085  0.98285588    -0.61980
O283        O  0.50233800  0.52242678  0.98659029    -0.74490
O284        O  0.58490399  0.50748494  0.98084017    -0.73270
Cu285      Cu  0.53709040  0.49617546  0.94481585     1.04560
Cu286      Cu  0.53946585  0.50494575  0.01414364     1.04330
C287        C  0.59312813  0.49324251  0.95953614     0.93030
C288        C  0.48914710  0.51884956  0.96410092     0.92170
C289        C  0.56210659  0.54706075  0.96137920     0.84320
C290        C  0.52919920  0.44407553  0.96929343     0.90590
N291        N  0.60187111  0.29462347  0.05880647    -0.27510
N292        N  0.61986563  0.30705451  0.07489241    -0.35370
C293        C  0.61840506  0.33445873  0.07106565     0.00830
C294        C  0.59875472  0.33978928  0.05152986     0.06860
C295        C  0.58829424  0.31412403  0.04448229    -0.06240
H296        H  0.63047854  0.34946690  0.08214668     0.07520
H297        H  0.57211409  0.30995745  0.02995484     0.08720
Cu298      Cu  0.64599006  0.28782573  0.10218253     0.44170
Cu299      Cu  0.59683816  0.25164338  0.05694059     0.41990
Cu300      Cu  0.63886657  0.21644287  0.10833022     0.43880
N301        N  0.67012018  0.26513191  0.12865612    -0.34900
N302        N  0.66675932  0.23825182  0.13168021    -0.29150
C303        C  0.68431345  0.22895533  0.15077871    -0.05250
C304        C  0.69968193  0.25112680  0.15993062     0.06960
C305        C  0.69021817  0.27374516  0.14541140     0.00760
H306        H  0.68600625  0.20762998  0.15722437     0.08410
H307        H  0.69708429  0.29492518  0.14720730     0.07490
N308        N  0.61217077  0.19681760  0.08189759    -0.36350
N309        N  0.59739600  0.20868837  0.06250717    -0.28530
C310        C  0.58458053  0.18870119  0.04804498    -0.03770
C311        C  0.59152125  0.16314603  0.05918453     0.04850
C312        C  0.60898743  0.16941171  0.08055008     0.02940
H313        H  0.57226677  0.19248412  0.03004733     0.08040
H314        H  0.61950594  0.15494927  0.09375783     0.06880
N315        N  0.60297312  0.70585702  0.93905426    -0.27510
N316        N  0.62372201  0.69449281  0.92567382    -0.35370
C317        C  0.62135797  0.66693322  0.92659832     0.00830
C318        C  0.59794997  0.65999138  0.94129933     0.06860
C319        C  0.58654585  0.68536825  0.94861980    -0.06240
H320        H  0.63576558  0.65293245  0.91705113     0.07520
H321        H  0.56744017  0.68887904  0.95945189     0.08720
Cu322      Cu  0.65320109  0.71563673  0.90375344     0.44170
Cu323      Cu  0.59917651  0.74900544  0.94346736     0.41990
Cu324      Cu  0.64153948  0.78623184  0.89270255     0.43880
N325        N  0.67493058  0.73801789  0.87504213    -0.34900
N326        N  0.66953186  0.76412579  0.86957347    -0.29150
C327        C  0.68569996  0.77263618  0.84865246    -0.05250
C328        C  0.70210362  0.75071271  0.84088363     0.06960
C329        C  0.69477911  0.72912014  0.85804042     0.00760
H330        H  0.68579265  0.79327950  0.84007496     0.08410
H331        H  0.70282447  0.70833677  0.85784890     0.07490
N332        N  0.61933221  0.80508926  0.92368314    -0.36350
N333        N  0.60461695  0.79227133  0.94288242    -0.28530
C334        C  0.59512152  0.81142384  0.96068978    -0.03770
C335        C  0.60438424  0.83731791  0.95210026     0.04850
C336        C  0.61940751  0.83232543  0.92852251     0.02940
H337        H  0.58218775  0.80691889  0.97832136     0.08040
H338        H  0.63008929  0.84745895  0.91593664     0.06880
N339        N  0.59994130  0.94456304  0.20661436    -0.27510
N340        N  0.61467482  0.92525226  0.19435822    -0.35370
C341        C  0.61104010  0.92697275  0.16717027     0.00830
C342        C  0.59340333  0.94851338  0.16175457     0.06860
C343        C  0.58663551  0.95926206  0.18725710    -0.06240
H344        H  0.62108217  0.91383958  0.15229238     0.07520
H345        H  0.57303129  0.97634790  0.19147373     0.08720
Cu346      Cu  0.64063035  0.89781894  0.21370371     0.44170
Cu347      Cu  0.59930996  0.94989962  0.24909990     0.41990
Cu348      Cu  0.64932140  0.90684515  0.28490849     0.43880
N349        N  0.66768570  0.87431404  0.23630298    -0.34900
N350        N  0.67153235  0.87834949  0.26276578    -0.29150
C351        C  0.69113256  0.86114272  0.27172811    -0.05250
C352        C  0.69982564  0.84536643  0.24980427     0.06960
C353        C  0.68450775  0.85415589  0.22765675     0.00760
H354        H  0.69833589  0.86009385  0.29265638     0.08410
H355        H  0.68584397  0.84686144  0.20674162     0.07490
N356        N  0.62392745  0.93497804  0.30394563    -0.36350
N357        N  0.60515380  0.95013585  0.29150285    -0.28530
C358        C  0.59071871  0.96395462  0.31071879    -0.03770
C359        C  0.60144699  0.95753581  0.33620034     0.04850
C360        C  0.62216315  0.93892494  0.33112781     0.02940
H361        H  0.57303215  0.97672749  0.30657438     0.08040
H362        H  0.63399430  0.92775529  0.34622802     0.06880
O363        O  0.59797141  0.04064202  0.01111971    -0.73160
O364        O  0.60291387  0.96598908  0.98451268    -0.74150
O365        O  0.59704664  0.01647910  0.96125524    -0.62760
O366        O  0.60014376  0.99152251  0.03843555    -0.71170
O367        O  0.56103984  0.96830174  0.03101573    -0.70730
O368        O  0.55296936  0.00586737  0.95533649    -0.61980
O369        O  0.56454329  0.95627477  0.00722559    -0.74490
O370        O  0.55385205  0.03722609  0.02071831    -0.73270
Cu371      Cu  0.59918466  0.00357710  0.99899208     1.04560
Cu372      Cu  0.52899216  0.99593556  0.00498065     1.04330
C373        C  0.57658318  0.05071670  0.02127889     0.93030
C374        C  0.58494949  0.94855403  0.99129916     0.92170
C375        C  0.57643018  0.01404867  0.94580696     0.84320
C376        C  0.58061417  0.97677335  0.04797399     0.90590
N377        N  0.48324733  0.79297079  0.05702671    -0.27510
N378        N  0.46752591  0.80628761  0.07475154    -0.35370
C379        C  0.46740050  0.83322237  0.06816951     0.00830
C380        C  0.48388954  0.83725971  0.04521681     0.06860
C381        C  0.49339557  0.81116202  0.03855347    -0.06240
H382        H  0.45583382  0.84873143  0.07915123     0.07520
H383        H  0.50604746  0.80554805  0.02113869     0.08720
Cu384      Cu  0.44454654  0.78755819  0.10554665     0.44170
Cu385      Cu  0.48947420  0.75058456  0.05835488     0.41990
Cu386      Cu  0.44001992  0.71419820  0.10153118     0.43880
N387        N  0.41786078  0.76434132  0.12954993    -0.34900
N388        N  0.41500434  0.73736850  0.12683141    -0.29150
C389        C  0.39501110  0.72840020  0.14389542    -0.05250
C390        C  0.38511402  0.75083790  0.15823243     0.06960
C391        C  0.40006151  0.77328391  0.14872757     0.00760
H392        H  0.38862300  0.70708118  0.14611929     0.08410
H393        H  0.39784573  0.79458524  0.15489791     0.07490
N394        N  0.47125327  0.69514187  0.07991617    -0.36350
N395        N  0.48994024  0.70816217  0.06477416    -0.28530
C396        C  0.50737955  0.68943209  0.05413309    -0.03770
C397        C  0.49913615  0.66351683  0.06311713     0.04850
C398        C  0.47609591  0.66792592  0.07916880     0.02940
H399        H  0.52404584  0.69420031  0.04004264     0.08040
H400        H  0.46345858  0.65239958  0.08920990     0.06880
N401        N  0.48428172  0.29069977  0.94198500    -0.27510
N402        N  0.46380545  0.30391950  0.93005316    -0.35370
C403        C  0.46612545  0.33101326  0.93543711     0.00830
C404        C  0.48914336  0.33490450  0.95139607     0.06860
C405        C  0.50032979  0.30904759  0.95495450    -0.06240
H406        H  0.45283328  0.34683867  0.92724415     0.07520
H407        H  0.51908456  0.30400053  0.96561461     0.08720
Cu408      Cu  0.43546102  0.28546777  0.90425883     0.44170
Cu409      Cu  0.49067406  0.24863166  0.93941128     0.41990
Cu410      Cu  0.44653981  0.21334216  0.89200861     0.43880
N411        N  0.41313083  0.26283915  0.87603155    -0.34900
N412        N  0.41789918  0.23651754  0.87091943    -0.29150
C413        C  0.40136971  0.22810335  0.85058968    -0.05250
C414        C  0.38526830  0.25015240  0.84271730     0.06960
C415        C  0.39317707  0.27182977  0.85929750     0.00760
H416        H  0.40102895  0.20743511  0.84228999     0.08410
H417        H  0.38544617  0.29273101  0.85885003     0.07490
N418        N  0.47568235  0.19371951  0.91582586    -0.36350
N419        N  0.49205293  0.20646197  0.93322698    -0.28530
C420        C  0.50677018  0.18750174  0.94702151    -0.03770
C421        C  0.49937700  0.16165376  0.93760392     0.04850
C422        C  0.47944276  0.16640049  0.91811358     0.02940
H423        H  0.52024625  0.19205529  0.96398213     0.08040
H424        H  0.46726989  0.15100499  0.90766984     0.06880
N425        N  0.48560309  0.94004738  0.79372698    -0.27510
N426        N  0.47033026  0.92033462  0.80506053    -0.35370
C427        C  0.47138002  0.92221742  0.83243581     0.00830
C428        C  0.48814636  0.94409410  0.83925255     0.06860
C429        C  0.49676860  0.95512832  0.81411542    -0.06240
H430        H  0.46038866  0.90862610  0.84642183     0.07520
H431        H  0.50952435  0.97319054  0.81082151     0.08720
Cu432      Cu  0.44641968  0.89202442  0.78488986     0.44170
Cu433      Cu  0.49006315  0.94491774  0.75084270     0.41990
Cu434      Cu  0.44588250  0.89484639  0.71452262     0.43880
N435        N  0.41959583  0.86817344  0.76284604    -0.34900
N436        N  0.41827592  0.87012371  0.73590786    -0.29150
C437        C  0.39807196  0.85347993  0.72691277    -0.05250
C438        C  0.38653219  0.84019912  0.74948016     0.06960
C439        C  0.40071457  0.84994436  0.77190786     0.00760
H440        H  0.39267557  0.85075640  0.70559644     0.08410
H441        H  0.39735695  0.84448439  0.79323452     0.07490
N442        N  0.47535041  0.91988793  0.69612006    -0.36350
N443        N  0.49041420  0.93920401  0.70793822    -0.28530
C444        C  0.50532467  0.95229618  0.68812823    -0.03770
C445        C  0.49907388  0.94062711  0.66280298     0.04850
C446        C  0.48071824  0.91965279  0.66917029     0.02940
H447        H  0.51940749  0.96919270  0.69180318     0.08040
H448        H  0.47181514  0.90484737  0.65528801     0.06880
O449        O  0.49187339  0.01335811  0.04128547    -0.73160
O450        O  0.48787734  0.99417935  0.96251589    -0.74150
O451        O  0.48699481  0.96536128  0.01430437    -0.62760
O452        O  0.49109607  0.04100699  0.99269676    -0.71170
O453        O  0.53442681  0.03795295  0.98002149    -0.70730
O454        O  0.52445179  0.95638325  0.99001592    -0.61980
O455        O  0.52727068  0.97059704  0.96626725    -0.74490
O456        O  0.53631556  0.00333184  0.04385200    -0.73270
Cu457      Cu  0.48980720  0.00353861  0.00256714     1.04560
Cu458      Cu  0.55968295  0.99638144  0.99385776     1.04330
C459        C  0.51353760  0.01034703  0.05510167     0.93030
C460        C  0.50611959  0.97918813  0.95136118     0.92170
C461        C  0.50345536  0.94788053  0.00497176     0.84320
C462        C  0.51193617  0.05170089  0.98188716     0.90590
N463        N  0.74933441  0.94752659  0.56130600    -0.27510
N464        N  0.73746220  0.93039090  0.57907463    -0.35370
C465        C  0.71015318  0.93123065  0.57603391     0.00830
C466        C  0.70419054  0.94995687  0.55565254     0.06860
C467        C  0.72945350  0.95994944  0.54653785    -0.06240
H468        H  0.69567864  0.91837056  0.58727471     0.07520
H469        H  0.73312983  0.97419187  0.52971874     0.08720
Cu470      Cu  0.75717529  0.90424684  0.60581018     0.44170
Cu471      Cu  0.79217872  0.95126647  0.55726927     0.41990
Cu472      Cu  0.82855439  0.90316322  0.60318930     0.43880
N473        N  0.77945101  0.87677002  0.62891636    -0.34900
N474        N  0.80645835  0.87542956  0.62706054    -0.29150
C475        C  0.81541733  0.85484354  0.64327059    -0.05250
C476        C  0.79281331  0.84304497  0.65619133     0.06960
C477        C  0.77035114  0.85748423  0.64671506     0.00760
H478        H  0.83676060  0.84935735  0.64594275     0.08410
H479        H  0.74898840  0.85404697  0.65208138     0.07490
N480        N  0.84741433  0.93244278  0.57830298    -0.36350
N481        N  0.83508443  0.94930640  0.56091023    -0.28530
C482        C  0.85457883  0.96416104  0.54744064    -0.03770
C483        C  0.88027440  0.95597518  0.55670395     0.04850
C484        C  0.87464237  0.93636859  0.57670764     0.02940
H485        H  0.85039996  0.97956723  0.53188916     0.08040
H486        H  0.88920333  0.92578299  0.58962017     0.06880
N487        N  0.97992721  0.29369401  0.55291602    -0.27510
N488        N  0.96480265  0.30639212  0.57164577    -0.35370
C489        C  0.96572201  0.33371271  0.56695965     0.00830
C490        C  0.98205879  0.33846924  0.54418594     0.06860
C491        C  0.99090664  0.31275942  0.53577216    -0.06240
H492        H  0.95536426  0.34901420  0.57934026     0.07520
H493        H  0.00442481  0.30825684  0.51865828     0.08720
Cu494      Cu  0.94252191  0.28687459  0.60250345     0.44170
Cu495      Cu  0.98417573  0.25100935  0.55126558     0.41990
Cu496      Cu  0.93632923  0.21423942  0.59687397     0.43880
N497        N  0.91747919  0.26370846  0.62832612    -0.34900
N498        N  0.91420834  0.23681763  0.62536853    -0.29150
C499        C  0.89512099  0.22778542  0.64342708    -0.05250
C500        C  0.88621688  0.25008755  0.65866627     0.06960
C501        C  0.90087854  0.27253025  0.64864177     0.00760
H502        H  0.88824648  0.20658571  0.64529335     0.08410
H503        H  0.89893654  0.29381593  0.65495394     0.07490
N504        N  0.96247048  0.19528364  0.56913918    -0.36350
N505        N  0.98049665  0.20824460  0.55312580    -0.28530
C506        C  0.99546427  0.18931781  0.53949116    -0.03770
C507        C  0.98596304  0.16341733  0.54705801     0.04850
C508        C  0.96531134  0.16794415  0.56598365     0.02940
H509        H  0.01245771  0.19403177  0.52577839     0.08040
H510        H  0.95401753  0.15246602  0.57757853     0.06880
N511        N  0.10019252  0.71080171  0.55972787    -0.27510
N512        N  0.11658879  0.69602017  0.57553696    -0.35370
C513        C  0.11268652  0.66917408  0.57009296     0.00830
C514        C  0.09277696  0.66704559  0.55018561     0.06860
C515        C  0.08527228  0.69373265  0.54395543    -0.06240
H516        H  0.12391761  0.65244252  0.57952321     0.07520
H517        H  0.07078736  0.70031939  0.52854213     0.08720
Cu518      Cu  0.14433353  0.71227652  0.60336659     0.44170
Cu519      Cu  0.09980950  0.75335304  0.55905984     0.41990
Cu520      Cu  0.14980497  0.78600356  0.60247702     0.43880
N521        N  0.17102219  0.73405977  0.62835551    -0.34900
N522        N  0.17361215  0.76118879  0.62693096    -0.29150
C523        C  0.19307124  0.76948467  0.64443961    -0.05250
C524        C  0.20297966  0.74651456  0.65784873     0.06960
C525        C  0.18853439  0.72433949  0.64732318     0.00760
H526        H  0.19914679  0.79074693  0.64752605     0.08410
H527        H  0.19087082  0.70278505  0.65269705     0.07490
N528        N  0.12274688  0.80743564  0.57824426    -0.36350
N529        N  0.10419213  0.79553654  0.56252719    -0.28530
C530        C  0.08920279  0.81516454  0.55022932    -0.03770
C531        C  0.09911123  0.84057215  0.55838277     0.04850
C532        C  0.12018114  0.83494666  0.57634576     0.02940
H533        H  0.07225407  0.81123636  0.53652430     0.08040
H534        H  0.13223534  0.84965588  0.58782283     0.06880
O535        O  0.08253128  0.01077111  0.55480186    -0.73160
O536        O  0.00586308  0.98914590  0.55718796    -0.74150
O537        O  0.05453834  0.96208379  0.55565937    -0.62760
O538        O  0.03610375  0.04082519  0.55648346    -0.71170
O539        O  0.01470355  0.03542962  0.51666188    -0.70730
O540        O  0.04762622  0.95627225  0.51090544    -0.61980
O541        O  0.00072348  0.01312346  0.51876340    -0.74490
O542        O  0.08110564  0.01978785  0.51039712    -0.73270
Cu543      Cu  0.04459502  0.00087879  0.55575247     1.04560
Cu544      Cu  0.04004318  0.00619020  0.48513765     1.04330
C545        C  0.09417233  0.01930859  0.53318379     0.93030
C546        C  0.99049663  0.99685455  0.53794784     0.92170
C547        C  0.05402441  0.94692866  0.53469744     0.84320
C548        C  0.02364866  0.05178127  0.53660308     0.90590
N549        N  0.59685126  0.05888582  0.78983108    -0.27510
N550        N  0.61274566  0.07720007  0.80211774    -0.35370
C551        C  0.61030401  0.07411187  0.82937277     0.00830
C552        C  0.59174768  0.05313395  0.83468995     0.06860
C553        C  0.58363059  0.04376062  0.80918905    -0.06240
H554        H  0.62197882  0.08566376  0.84427420     0.07520
H555        H  0.57023074  0.02642594  0.80502762     0.08720
Cu556      Cu  0.63899442  0.10463878  0.78256410     0.44170
Cu557      Cu  0.59557799  0.05447618  0.74736573     0.41990
Cu558      Cu  0.64225212  0.10192583  0.71040022     0.43880
N559        N  0.66597207  0.12880756  0.76000765    -0.34900
N560        N  0.66821500  0.12701015  0.73305939    -0.29150
C561        C  0.68828000  0.14424597  0.72433725    -0.05250
C562        C  0.69874985  0.15776755  0.74697212     0.06960
C563        C  0.68408799  0.14754174  0.76921231     0.00760
H564        H  0.69433432  0.14717252  0.70310570     0.08410
H565        H  0.68662212  0.15302095  0.79054483     0.07490
N566        N  0.61334414  0.07646441  0.69195203    -0.36350
N567        N  0.59723108  0.05847997  0.70480225    -0.28530
C568        C  0.58194627  0.04505952  0.68608085    -0.03770
C569        C  0.58827317  0.05552122  0.66013224     0.04850
C570        C  0.60834813  0.07534791  0.66496788     0.02940
H571        H  0.56780789  0.02857149  0.69122589     0.08040
H572        H  0.61863002  0.08833162  0.64993088     0.06880
N573        N  0.48065571  0.05476482  0.29179267    -0.27510
N574        N  0.46501324  0.07276702  0.30485839    -0.35370
C575        C  0.46951196  0.07054707  0.33193345     0.00830
C576        C  0.48868255  0.05004414  0.33606707     0.06860
C577        C  0.49538856  0.04041716  0.31025861    -0.06240
H578        H  0.45988995  0.08324400  0.34744561     0.07520
H579        H  0.51045462  0.02485450  0.30520402     0.08720
Cu580      Cu  0.43880464  0.10024362  0.28554636     0.44170
Cu581      Cu  0.48253083  0.05226224  0.24944106     0.41990
Cu582      Cu  0.44431178  0.10508294  0.21198385     0.43880
N583        N  0.41499637  0.12673787  0.26216451    -0.34900
N584        N  0.41772468  0.12942614  0.23525860    -0.29150
C585        C  0.40011373  0.14887618  0.22642006    -0.05250
C586        C  0.38537844  0.15855268  0.24880763     0.06960
C587        C  0.39529648  0.14399621  0.27109532     0.00760
H588        H  0.39782403  0.15511089  0.20521106     0.08410
H589        H  0.38893811  0.14604706  0.29231093     0.07490
N590        N  0.46978596  0.07587019  0.19352957    -0.36350
N591        N  0.48281767  0.05621851  0.20712725    -0.28530
C592        C  0.49611738  0.03993176  0.18916163    -0.03770
C593        C  0.49160757  0.05005489  0.16308036     0.04850
C594        C  0.47476585  0.07273219  0.16651339     0.02940
H595        H  0.50811510  0.02202356  0.19469280     0.08040
H596        H  0.46617757  0.08554257  0.15050553     0.06880
N597        N  0.33582859  0.05915536  0.56200007    -0.27510
N598        N  0.34668458  0.07435419  0.58164149    -0.35370
C599        C  0.37410794  0.07372094  0.57975852     0.00830
C600        C  0.38109832  0.05730311  0.55794768     0.06860
C601        C  0.35647100  0.04804066  0.54714712    -0.06240
H602        H  0.38793431  0.08480984  0.59309651     0.07520
H603        H  0.35377906  0.03499380  0.52940731     0.08720
Cu604      Cu  0.32537833  0.09744950  0.60941704     0.44170
Cu605      Cu  0.29344063  0.05665198  0.55588069     0.41990
Cu606      Cu  0.25568468  0.10752919  0.59842187     0.43880
N607        N  0.30329902  0.12507804  0.63196398    -0.34900
N608        N  0.27716807  0.13009989  0.62717307    -0.29150
C609        C  0.26872548  0.15050013  0.64381284    -0.05250
C610        C  0.29077076  0.15829429  0.65987595     0.06960
C611        C  0.31231753  0.14174480  0.65186323     0.00760
H612        H  0.24813995  0.15883604  0.64430911     0.08410
H613        H  0.33316560  0.14219190  0.65940736     0.07490
N614        N  0.23779789  0.07995462  0.57152275    -0.36350
N615        N  0.25076835  0.06149517  0.55625399    -0.28530
C616        C  0.23187709  0.04615780  0.54299054    -0.03770
C617        C  0.20604257  0.05548505  0.55047117     0.04850
C618        C  0.21061270  0.07679495  0.56849981     0.02940
H619        H  0.23655274  0.02874932  0.52996841     0.08040
H620        H  0.19521721  0.08844303  0.57956489     0.06880
O621        O  0.53271964  0.01738272  0.54163845    -0.73160
O622        O  0.52345810  0.00743318  0.46076301    -0.74150
O623        O  0.58742661  0.00833021  0.49399201    -0.62760
O624        O  0.50836781  0.01491620  0.53047373    -0.71170
O625        O  0.50255154  0.05444646  0.50729067    -0.70730
O626        O  0.57933513  0.05179275  0.48239627    -0.61980
O627        O  0.52920636  0.05244553  0.45845163    -0.74490
O628        O  0.55566284  0.05581304  0.53262202    -0.73270
Cu629      Cu  0.53681369  0.98321206  0.50333399     1.04560
Cu630      Cu  0.54139925  0.05318093  0.49524372     1.04330
C631        C  0.54943981  0.03701745  0.54945382     0.93030
C632        C  0.52279550  0.03015367  0.44714888     0.92170
C633        C  0.59589070  0.03200920  0.48524364     0.84320
C634        C  0.49249607  0.03606211  0.52305481     0.90590
N635        N  0.24942367  0.93700500  0.44638937    -0.27510
N636        N  0.23810304  0.91659388  0.43252028    -0.35370
C637        C  0.21092661  0.91664480  0.43684933     0.00830
C638        C  0.20450237  0.93813000  0.45425933     0.06860
C639        C  0.22946522  0.95074822  0.45989778    -0.06240
H640        H  0.19665037  0.90295058  0.42672128     0.07520
H641        H  0.23270741  0.96946935  0.47145881     0.08720
Cu642      Cu  0.25827956  0.89142623  0.40506941     0.44170
Cu643      Cu  0.29126716  0.94539699  0.44441716     0.41990
Cu644      Cu  0.32899588  0.90238231  0.39430174     0.43880
N645        N  0.28027469  0.87001898  0.37589301    -0.34900
N646        N  0.30659346  0.87475761  0.37102434    -0.29150
C647        C  0.31507666  0.85836657  0.35045136    -0.05250
C648        C  0.29296042  0.84241581  0.34227948     0.06960
C649        C  0.27124957  0.85030334  0.35885499     0.00760
H650        H  0.33586142  0.85773719  0.34244406     0.08410
H651        H  0.25039239  0.84250250  0.35843834     0.07490
N652        N  0.34705266  0.92809812  0.42292645    -0.36350
N653        N  0.33375542  0.94397015  0.44060420    -0.28530
C654        C  0.35214047  0.95635447  0.45704859    -0.03770
C655        C  0.37804449  0.94746692  0.44956234     0.04850
C656        C  0.37410387  0.92977570  0.42782962     0.02940
H657        H  0.34692717  0.96968097  0.47404311     0.08040
H658        H  0.38970763  0.91827675  0.41690233     0.06880
N659        N  0.98430843  0.79337316  0.43661070    -0.27510
N660        N  0.96265525  0.80474388  0.42495063    -0.35370
C661        C  0.96385060  0.83221016  0.42776081     0.00830
C662        C  0.98733639  0.83891980  0.44197472     0.06860
C663        C  0.00003040  0.81371252  0.44708388    -0.06240
H664        H  0.94875772  0.84633660  0.41963480     0.07520
H665        H  0.01962919  0.81036625  0.45681734     0.08720
Cu666      Cu  0.93319818  0.78412002  0.40306525     0.44170
Cu667      Cu  0.99117985  0.75062595  0.43671246     0.41990
Cu668      Cu  0.94521614  0.71392204  0.38998864     0.43880
N669        N  0.90968686  0.76194418  0.37612927    -0.34900
N670        N  0.91487549  0.73591178  0.37029787    -0.29150
C671        C  0.89783317  0.72758123  0.35039186    -0.05250
C672        C  0.88105542  0.74951087  0.34362075     0.06960
C673        C  0.88904245  0.77095570  0.36035749     0.00760
H674        H  0.89780623  0.70719074  0.34144050     0.08410
H675        H  0.88115968  0.79180353  0.36041310     0.07490
N676        N  0.97454835  0.69496126  0.41389366    -0.36350
N677        N  0.99089781  0.70764123  0.43143569    -0.28530
C678        C  0.00513072  0.68830946  0.44535991    -0.03770
C679        C  0.99766314  0.66250432  0.43560873     0.04850
C680        C  0.97805116  0.66757316  0.41600985     0.02940
H681        H  0.01882505  0.69260186  0.46220946     0.08040
H682        H  0.96592567  0.65235868  0.40526079     0.06880
N683        N  0.75286327  0.05506602  0.44298151    -0.27510
N684        N  0.74053832  0.06862566  0.42296396    -0.35370
C685        C  0.71331946  0.06538324  0.42558091     0.00830
C686        C  0.70798712  0.04897056  0.44828436     0.06860
C687        C  0.73357084  0.04279419  0.45894784    -0.06240
H688        H  0.69838256  0.07527438  0.41250278     0.07520
H689        H  0.73782919  0.03147008  0.47761604     0.08720
Cu690      Cu  0.75962974  0.09388687  0.39432894     0.44170
Cu691      Cu  0.79520927  0.05514230  0.44786777     0.41990
Cu692      Cu  0.83145449  0.10010437  0.39832060     0.43880
N693        N  0.78137441  0.12180860  0.37047052    -0.34900
N694        N  0.80818006  0.12520412  0.37282028    -0.29150
C695        C  0.81633744  0.14587100  0.35601876    -0.05250
C696        C  0.79350946  0.15556115  0.34221437     0.06960
C697        C  0.77171833  0.13979591  0.35182454     0.00760
H698        H  0.83733861  0.15297048  0.35368023     0.08410
H699        H  0.75036026  0.14159343  0.34610367     0.07490
N700        N  0.85026482  0.07157050  0.42409003    -0.36350
N701        N  0.83760331  0.05613585  0.44276722    -0.28530
C702        C  0.85636530  0.04072308  0.45601823    -0.03770
C703        C  0.88214104  0.04625852  0.44478002     0.04850
C704        C  0.87722076  0.06601433  0.42465433     0.02940
H705        H  0.85139521  0.02702237  0.47289983     0.08040
H706        H  0.89218869  0.07568868  0.41114409     0.06880
N707        N  0.10377034  0.29652947  0.44439614    -0.27510
N708        N  0.11732198  0.30889241  0.42412498    -0.35370
C709        C  0.11636984  0.33631348  0.42787653     0.00830
C710        C  0.10148038  0.34164242  0.45158923     0.06860
C711        C  0.09394605  0.31584308  0.46160570    -0.06240
H712        H  0.12658715  0.35128217  0.41472836     0.07520
H713        H  0.08337387  0.31126400  0.48070164     0.08720
Cu714      Cu  0.13990832  0.28872940  0.39401274     0.44170
Cu715      Cu  0.10104385  0.25398286  0.44913657     0.41990
Cu716      Cu  0.14867663  0.21690344  0.40502432     0.43880
N717        N  0.16697455  0.26518461  0.37088156    -0.34900
N718        N  0.17115893  0.23872824  0.37592246    -0.29150
C719        C  0.19115046  0.22945457  0.35916281    -0.05250
C720        C  0.19978224  0.25112354  0.34260059     0.06960
C721        C  0.18396823  0.27344868  0.35050362     0.00760
H722        H  0.19866456  0.20847089  0.35893384     0.08410
H723        H  0.18519653  0.29430616  0.34253267     0.07490
N724        N  0.12155751  0.19818511  0.43228954    -0.36350
N725        N  0.10390320  0.21126321  0.44831391    -0.28530
C726        C  0.08788614  0.19249026  0.46137034    -0.03770
C727        C  0.09599313  0.16644287  0.45306968     0.04850
C728        C  0.11726019  0.17094195  0.43461685     0.02940
H729        H  0.07063400  0.19749463  0.47454078     0.08040
H730        H  0.12797106  0.15552229  0.42268005     0.06880
O731        O  0.08032106  0.97894382  0.49053875    -0.73160
O732        O  0.00096749  0.98963967  0.48184020    -0.74150
O733        O  0.01424084  0.96654899  0.48370823    -0.62760
O734        O  0.05000102  0.04489827  0.49093553    -0.71170
O735        O  0.05796647  0.03961777  0.44660926    -0.70730
O736        O  0.03831327  0.96115784  0.44469143    -0.61980
O737        O  0.00936986  0.01288639  0.44337772    -0.74490
O738        O  0.08518076  0.99131661  0.44717372    -0.73270
Cu739      Cu  0.03992674  0.99529119  0.51589231     1.04560
Cu740      Cu  0.04772194  0.00107430  0.44583385     1.04330
C741        C  0.09427008  0.97944893  0.46808625     0.93030
C742        C  0.99272334  0.00635396  0.46225188     0.92170
C743        C  0.02289811  0.95077535  0.46308190     0.84320
C744        C  0.05629080  0.05499599  0.46730018     0.90590
N745        N  0.82725758  0.29618779  0.24012163    -0.27510
N746        N  0.83665122  0.28565181  0.26329543    -0.35370
C747        C  0.85854723  0.30036455  0.27141973     0.00830
C748        C  0.86348413  0.32083971  0.25221063     0.06860
C749        C  0.84338264  0.31760556  0.23255050    -0.06240
H750        H  0.87039248  0.29601393  0.28962519     0.07520
H751        H  0.84045830  0.33008289  0.21433505     0.08720
Cu752      Cu  0.82075707  0.25075381  0.28217035     0.44170
Cu753      Cu  0.79244271  0.28126553  0.22064265     0.41990
Cu754      Cu  0.76128942  0.21972906  0.25165314     0.43880
N755        N  0.80264843  0.21498732  0.29705275    -0.34900
N756        N  0.78015974  0.20405470  0.28654172    -0.29150
C757        C  0.77317933  0.18146268  0.30125167    -0.05250
C758        C  0.79251768  0.17783361  0.32163158     0.06960
C759        C  0.81093077  0.19939476  0.31832515     0.00760
H760        H  0.75572679  0.16829450  0.29700458     0.08410
H761        H  0.82888110  0.20361229  0.33060340     0.07490
N762        N  0.74666064  0.23912457  0.21653593    -0.36350
N763        N  0.75734530  0.26199674  0.20589953    -0.28530
C764        C  0.74220733  0.26984787  0.18424472    -0.03770
C765        C  0.72129877  0.25078613  0.18085538     0.04850
C766        C  0.72478761  0.23154051  0.20157244     0.02940
H767        H  0.74633103  0.28792167  0.17171759     0.08040
H768        H  0.71203272  0.21365652  0.20583534     0.06880
N769        N  0.78106497  0.71893850  0.20420615    -0.27510
N770        N  0.80353973  0.70811837  0.21475809    -0.35370
C771        C  0.81078688  0.68590398  0.20003534     0.00830
C772        C  0.79168888  0.68245660  0.17951283     0.06860
C773        C  0.77310717  0.70366585  0.18273634    -0.06240
H774        H  0.82823216  0.67287489  0.20440779     0.07520
H775        H  0.75519670  0.70778842  0.17037969     0.08720
Cu776      Cu  0.82213826  0.72291177  0.24964340     0.44170
Cu777      Cu  0.76232007  0.75389170  0.21934426     0.41990
Cu778      Cu  0.79084988  0.78277371  0.28125329     0.43880
N779        N  0.83600328  0.74066806  0.28535490    -0.34900
N780        N  0.82513366  0.76294381  0.29654241    -0.29150
C781        C  0.83952726  0.76959372  0.31901282    -0.05250
C782        C  0.86013937  0.75033404  0.32219313     0.06960
C783        C  0.85730182  0.73227417  0.30058855     0.00760
H784        H  0.83512555  0.78698008  0.33215764     0.08410
H785        H  0.87001384  0.71460202  0.29597726     0.07490
N786        N  0.75661521  0.79845968  0.26170760    -0.36350
N787        N  0.74676837  0.78839127  0.23859659    -0.28530
C788        C  0.72519791  0.80363473  0.23069592    -0.03770
C789        C  0.72110514  0.82403630  0.24996348     0.04850
C790        C  0.74128918  0.82015004  0.26938723     0.02940
H791        H  0.71318346  0.79986403  0.21249470     0.08040
H792        H  0.74483504  0.83237619  0.28754786     0.06880
N793        N  0.32713668  0.73945597  0.20435460    -0.27510
N794        N  0.33758489  0.76230126  0.21479323    -0.35370
C795        C  0.35964429  0.77001357  0.19982125     0.00830
C796        C  0.36343677  0.75083831  0.17927661     0.06860
C797        C  0.34257540  0.73168376  0.18276539    -0.06240
H798        H  0.37223765  0.78796435  0.20390929     0.07520
H799        H  0.33862010  0.71370004  0.17030333     0.08720
Cu800      Cu  0.32212481  0.78123835  0.24952957     0.44170
Cu801      Cu  0.29185541  0.72062943  0.21932856     0.41990
Cu802      Cu  0.26091869  0.75095903  0.28004606     0.43880
N803        N  0.30333195  0.79620896  0.28459359    -0.34900
N804        N  0.28051172  0.78569056  0.29529823    -0.29150
C805        C  0.27319643  0.80064770  0.31732662    -0.05250
C806        C  0.29255374  0.82129620  0.32078158     0.06960
C807        C  0.31140134  0.81784845  0.29975255     0.00760
H808        H  0.25533677  0.79652702  0.33008508     0.08410
H809        H  0.32945238  0.83032533  0.29553751     0.07490
N810        N  0.24566199  0.71615887  0.26067593    -0.36350
N811        N  0.25649379  0.70573258  0.23803623    -0.28530
C812        C  0.24144238  0.68388317  0.23019072    -0.03770
C813        C  0.22037732  0.68016669  0.24900510     0.04850
C814        C  0.22365842  0.70089176  0.26811327     0.02940
H815        H  0.24587505  0.67132538  0.21241373     0.08040
H816        H  0.21089212  0.70476393  0.28594702     0.06880
N817        N  0.28096404  0.70342940  0.78650505    -0.27510
N818        N  0.30323159  0.71452166  0.79732770    -0.35370
C819        C  0.31021424  0.69991020  0.81971860     0.00830
C820        C  0.29112763  0.67897356  0.82330474     0.06860
C821        C  0.27282995  0.68182641  0.80199527    -0.06240
H822        H  0.32758803  0.70450724  0.83266720     0.07520
H823        H  0.25517408  0.66892525  0.79777425     0.08720
Cu824      Cu  0.32239581  0.74959148  0.78183592     0.44170
Cu825      Cu  0.26317257  0.71737491  0.75073844     0.41990
Cu826      Cu  0.29349968  0.77869734  0.72008565     0.43880
N827        N  0.33806967  0.78426371  0.76211865    -0.34900
N828        N  0.32821476  0.79432818  0.73893845    -0.29150
C829        C  0.34401151  0.81571881  0.73066185    -0.05250
C830        C  0.36445935  0.81946975  0.74982981     0.06960
C831        C  0.36002370  0.79930360  0.76953462     0.00760
H832        H  0.34066268  0.82778616  0.71225351     0.08410
H833        H  0.37222954  0.79540794  0.78759975     0.07490
N834        N  0.25936550  0.75853846  0.70465444    -0.36350
N835        N  0.24900604  0.73548075  0.71513919    -0.28530
C836        C  0.22770740  0.72719766  0.69975230    -0.03770
C837        C  0.22431153  0.74624270  0.67889590     0.04850
C838        C  0.24459616  0.76587196  0.68264102     0.02940
H839        H  0.21517549  0.70913833  0.70394016     0.08040
H840        H  0.24847806  0.78405137  0.67019063     0.06880
N841        N  0.32907776  0.26247773  0.79549234    -0.27510
N842        N  0.33949579  0.23968371  0.78491897    -0.35370
C843        C  0.36099918  0.23168185  0.80016396     0.00830
C844        C  0.36439975  0.25054971  0.82108862     0.06860
C845        C  0.34389517  0.26983205  0.81746912    -0.06240
H846        H  0.37336737  0.21362454  0.79613897     0.07520
H847        H  0.33973765  0.28764890  0.83011225     0.08720
Cu848      Cu  0.32424032  0.22080770  0.75003347     0.44170
Cu849      Cu  0.29460002  0.28201040  0.78036325     0.41990
Cu850      Cu  0.26419973  0.25207850  0.71995908     0.43880
N851        N  0.30440791  0.20557938  0.71572643    -0.34900
N852        N  0.28197402  0.21664250  0.70532137    -0.29150
C853        C  0.27345801  0.20139262  0.68405151    -0.05250
C854        C  0.29161474  0.17988194  0.68074874     0.06960
C855        C  0.31104863  0.18314957  0.70103878     0.00760
H856        H  0.25560736  0.20589351  0.67173719     0.08410
H857        H  0.32849620  0.17001838  0.70508738     0.07490
N858        N  0.24941309  0.28681993  0.73892276    -0.36350
N859        N  0.25993186  0.29740454  0.76148962    -0.28530
C860        C  0.24472346  0.31915522  0.76920080    -0.03770
C861        C  0.22391254  0.32242687  0.75034898     0.04850
C862        C  0.22750177  0.30168311  0.73140863     0.02940
H863        H  0.24867572  0.33171910  0.78704498     0.08040
H864        H  0.21488651  0.29735693  0.71374452     0.06880
N865        N  0.77990274  0.28408601  0.79554480    -0.27510
N866        N  0.80251992  0.29533812  0.78512128    -0.35370
C867        C  0.80970773  0.31710105  0.80058470     0.00830
C868        C  0.79050875  0.31987288  0.82149902     0.06860
C869        C  0.77185384  0.29866727  0.81762549    -0.06240
H870        H  0.82746254  0.33010378  0.79671110     0.07520
H871        H  0.75401067  0.29387926  0.83017898     0.08720
Cu872      Cu  0.82233312  0.28091491  0.75001352     0.44170
Cu873      Cu  0.76155208  0.24885243  0.77983012     0.41990
Cu874      Cu  0.79259111  0.21970885  0.71903560     0.43880
N875        N  0.83846125  0.26172748  0.71536318    -0.34900
N876        N  0.82813526  0.23883638  0.70484358    -0.29150
C877        C  0.84377926  0.23101888  0.68341632    -0.05250
C878        C  0.86470685  0.25010746  0.68001051     0.06960
C879        C  0.86069726  0.26936814  0.70051110     0.00760
H880        H  0.83982931  0.21307733  0.67089318     0.08410
H881        H  0.87317987  0.28740889  0.70454509     0.07490
N882        N  0.75700206  0.20426962  0.73709681    -0.36350
N883        N  0.74633212  0.21424569  0.76000966    -0.28530
C884        C  0.72417671  0.19906636  0.76712597    -0.03770
C885        C  0.72049396  0.17890150  0.74749801     0.04850
C886        C  0.74158410  0.18282980  0.72869798     0.02940
H887        H  0.71140823  0.20277273  0.78499521     0.08040
H888        H  0.74571548  0.17073428  0.71053532     0.06880
N889        N  0.82752219  0.70350075  0.75825345    -0.27510
N890        N  0.83792195  0.71367111  0.73515237    -0.35370
C891        C  0.85949544  0.69818295  0.72740911     0.00830
C892        C  0.86301867  0.67762333  0.74683015     0.06860
C893        C  0.84250232  0.68164870  0.76612490    -0.06240
H894        H  0.87198915  0.70195919  0.70930227     0.07520
H895        H  0.83848781  0.66938067  0.78434748     0.08720
Cu896      Cu  0.82301643  0.74880578  0.71593304     0.44170
Cu897      Cu  0.79292262  0.71896133  0.77767598     0.41990
Cu898      Cu  0.76149750  0.77819507  0.74599673     0.43880
N899        N  0.80385928  0.78390410  0.70096012    -0.34900
N900        N  0.78070749  0.79374464  0.71129239    -0.29150
C901        C  0.77305658  0.81592740  0.69663693    -0.05250
C902        C  0.79257339  0.82054431  0.67641778     0.06960
C903        C  0.81188365  0.79997491  0.67973858     0.00760
H904        H  0.75503190  0.82822596  0.70091081     0.08410
H905        H  0.83024303  0.79676432  0.66752422     0.07490
N906        N  0.74714084  0.76029395  0.78185225    -0.36350
N907        N  0.75819003  0.73811320  0.79308088    -0.28530
C908        C  0.74373999  0.73119508  0.81571231    -0.03770
C909        C  0.72288062  0.75019097  0.81898541     0.04850
C910        C  0.72564031  0.76839452  0.79724642     0.02940
H911        H  0.74834370  0.71386959  0.82897436     0.08040
H912        H  0.71281773  0.78600451  0.79272499     0.06880
N913        N  0.24719148  0.26181048  0.28537960    -0.27510
N914        N  0.25766725  0.23912739  0.29621780    -0.35370
C915        C  0.24226952  0.23160642  0.31812423     0.00830
C916        C  0.22140872  0.25070755  0.32133028     0.06860
C917        C  0.22521709  0.26957888  0.30028907    -0.06240
H918        H  0.24621146  0.21380251  0.33097361     0.07520
H919        H  0.21273183  0.28746158  0.29587825     0.08720
Cu920      Cu  0.29290835  0.22009346  0.28095600     0.44170
Cu921      Cu  0.26242381  0.28091943  0.25032959     0.41990
Cu922      Cu  0.32237285  0.25075843  0.21879779     0.43880
N923        N  0.32779926  0.20507801  0.26102473    -0.34900
N924        N  0.33783792  0.21557245  0.23788218    -0.29150
C925        C  0.35958952  0.20045486  0.22981426    -0.05250
C926        C  0.36370400  0.17974502  0.24898429     0.06960
C927        C  0.34325477  0.18335415  0.26853183     0.00760
H928        H  0.37182383  0.20457777  0.21160509     0.08410
H929        H  0.33962545  0.17087290  0.28668775     0.07490
N930        N  0.30337863  0.28629179  0.20405409    -0.36350
N931        N  0.28092591  0.29679190  0.21524144    -0.28530
C932        C  0.27327977  0.31918585  0.20079588    -0.03770
C933        C  0.29201794  0.32321515  0.17968798     0.04850
C934        C  0.31087146  0.30204068  0.18238829     0.02940
H935        H  0.25568411  0.33188241  0.20565459     0.08040
H936        H  0.32861618  0.29823985  0.16946114     0.06880
C937        C  0.06736082  0.10143832  0.48685029    -0.09380
C938        C  0.06284346  0.08480630  0.46368392     0.06820
C939        C  0.06659196  0.09675484  0.43721421    -0.03140
C940        C  0.07631872  0.12369295  0.43466313    -0.07590
C941        C  0.08210283  0.13968352  0.45770654     0.05930
C942        C  0.07662887  0.12878633  0.48403487    -0.02620
Br943      Br  0.08355688  0.14949022  0.51668369    -0.02310
H944        H  0.06484624  0.09286418  0.50725585     0.09850
H945        H  0.07987553  0.13215226  0.41429690     0.07860
Br946      Br  0.05969068  0.07825524  0.40300054    -0.02740
C947        C  0.93239911  0.05276383  0.44745011    -0.09380
C948        C  0.90972499  0.03542625  0.45242766     0.06820
C949        C  0.91462548  0.00847156  0.46284018    -0.03140
C950        C  0.94175161  0.99945902  0.46703597    -0.07590
C951        C  0.96420279  0.01655867  0.46044123     0.05930
C952        C  0.95919210  0.04362818  0.45092020    -0.02620
Br953      Br  0.98788740  0.06974553  0.44223239    -0.02310
H954        H  0.92942927  0.07375393  0.44039067     0.09850
H955        H  0.94532558  0.97864700  0.47439368     0.07860
Br956      Br  0.88600544  0.98194169  0.46965101    -0.02740
C957        C  0.99140564  0.88843043  0.42890035    -0.09380
C958        C  0.99669388  0.86741434  0.44816996     0.06820
C959        C  0.00932025  0.87454317  0.47314236    -0.03140
C960        C  0.01653824  0.90209734  0.47816538    -0.07590
C961        C  0.01169273  0.92283293  0.45869408     0.05930
C962        C  0.99887241  0.91582678  0.43389789    -0.02620
Br963      Br  0.99044272  0.94306897  0.40648940    -0.02310
H964        H  0.98161897  0.88353394  0.40963172     0.09850
H965        H  0.02665800  0.90723119  0.49702982     0.07860
Br966      Br  0.01618120  0.84801813  0.50159564    -0.02740
C967        C  0.13967401  0.96655369  0.48819346    -0.09380
C968        C  0.12176370  0.96684598  0.46569952     0.06820
C969        C  0.13142202  0.95730877  0.43996219    -0.03140
C970        C  0.15835015  0.94840322  0.43711822    -0.07590
C971        C  0.17645271  0.94857205  0.45927660     0.05930
C972        C  0.16698375  0.95772583  0.48509910    -0.02620
Br973      Br  0.19004935  0.95778240  0.51678976    -0.02310
H974        H  0.13268491  0.97387597  0.50799631     0.09850
H975        H  0.16528462  0.94151603  0.41711774     0.07860
Br976      Br  0.10924432  0.95516295  0.40741606    -0.02740
C977        C  0.64380813  0.01457078  0.47798755    -0.09380
C978        C  0.62520342  0.03675433  0.47760648     0.06820
C979        C  0.63499994  0.06309001  0.46887797    -0.03140
C980        C  0.66219521  0.06629397  0.46047443    -0.07590
C981        C  0.68047480  0.04412303  0.46039266     0.05930
C982        C  0.67131790  0.01812080  0.46984152    -0.02620
Br983      Br  0.69475790  0.98642408  0.47024650    -0.02310
H984        H  0.63683419  0.99415325  0.48385858     0.09850
H985        H  0.66910005  0.08648469  0.45357064     0.07860
Br986      Br  0.61324966  0.09618928  0.46653968    -0.02740
C987        C  0.45391945  0.06780788  0.53305157    -0.09380
C988        C  0.46456398  0.04085283  0.53467627     0.06820
C989        C  0.44699387  0.01946671  0.54415412    -0.03140
C990        C  0.41953278  0.02503052  0.55062642    -0.07590
C991        C  0.40921164  0.05179227  0.54854937     0.05930
C992        C  0.42666467  0.07338329  0.53997423    -0.02620
Br993      Br  0.41397645  0.11065628  0.53605063    -0.02310
H994        H  0.46671080  0.08476412  0.52589080     0.09850
H995        H  0.40625704  0.00845313  0.55783888     0.07860
Br996      Br  0.45812929  0.98219732  0.54837474    -0.02740
C997        C  0.52602132  0.05527619  0.40294655    -0.09380
C998        C  0.51627240  0.03177772  0.41732388     0.06820
C999        C  0.50053546  0.01218360  0.40275426    -0.03140
C1000       C  0.49277438  0.01775712  0.37559192    -0.07590
C1001       C  0.50085643  0.04231987  0.36247637     0.05930
C1002       C  0.51849832  0.06060514  0.37595189    -0.02620
Br1003     Br  0.53278158  0.09329914  0.35842232    -0.02310
H1004       H  0.53929873  0.07012177  0.41288505     0.09850
H1005       H  0.47951403  0.00335349  0.36501164     0.07860
Br1006     Br  0.48781439  0.97824685  0.41834585    -0.02740
C1007       C  0.59517449  0.05247851  0.60986678    -0.09380
C1008       C  0.57771573  0.04766598  0.63249856     0.06820
C1009       C  0.55088343  0.03729613  0.62746474    -0.03140
C1010       C  0.54217542  0.03289825  0.60033581    -0.07590
C1011       C  0.55940905  0.03928694  0.57795381     0.05930
C1012       C  0.58627945  0.04890394  0.58304238    -0.02620
Br1013     Br  0.61235505  0.05753239  0.55435744    -0.02310
H1014       H  0.61606986  0.05949991  0.61286550     0.09850
H1015       H  0.52149751  0.02546013  0.59669095     0.07860
Br1016     Br  0.52410740  0.03067340  0.65583217    -0.02740
C1017       C  0.13635874  0.02336722  0.56111783    -0.09380
C1018       C  0.12370465  0.02756573  0.53545762     0.06820
C1019       C  0.13992057  0.03872180  0.51374816    -0.03140
C1020       C  0.16736873  0.04637722  0.51852968    -0.07590
C1021       C  0.17904959  0.04319596  0.54455770     0.05930
C1022       C  0.16348494  0.03103777  0.56575232    -0.02620
Br1023     Br  0.17827921  0.02430985  0.60162031    -0.02310
H1024       H  0.12510446  0.01420876  0.57814610     0.09850
H1025       H  0.17934494  0.05579753  0.50212119     0.07860
Br1026     Br  0.12639692  0.04497931  0.47745821    -0.02740
C1027       C  0.05938921  0.87170692  0.55416590    -0.09380
C1028       C  0.08776492  0.86768338  0.55128107     0.06820
C1029       C  0.10458132  0.88966537  0.54211183    -0.03140
C1030       C  0.09261799  0.91478987  0.53493577    -0.07590
C1031       C  0.06426662  0.91880317  0.53792909     0.05930
C1032       C  0.04770779  0.89731670  0.54838874    -0.02620
Br1033     Br  0.00946816  0.90210685  0.55619899    -0.02310
H1034       H  0.04640580  0.85514265  0.56191145     0.09850
H1035       H  0.10566312  0.93169177  0.52809125     0.07860
Br1036     Br  0.14383782  0.88687709  0.53930572    -0.02740
C1037       C  0.01952258  0.12716460  0.55783599    -0.09380
C1038       C  0.99828267  0.13651419  0.54110744     0.06820
C1039       C  0.98708987  0.11882936  0.52134265    -0.03140
C1040       C  0.99618730  0.09155421  0.51959212    -0.07590
C1041       C  0.01615713  0.08138491  0.53765787     0.05930
C1042       C  0.02878440  0.09998203  0.55615221    -0.02620
Br1043     Br  0.05931254  0.09049660  0.57917755    -0.02310
H1044       H  0.02850014  0.14094443  0.57278776     0.09850
H1045       H  0.98703458  0.07810686  0.50451613     0.07860
Br1046     Br  0.95891836  0.13092705  0.49686042    -0.02740
C1047       C  0.91204112  0.99436613  0.54203569    -0.09380
C1048       C  0.90793996  0.96617536  0.54813978     0.06820
C1049       C  0.93089220  0.94840053  0.54735613    -0.03140
C1050       C  0.95708141  0.95922395  0.54265037    -0.07590
C1051       C  0.96150287  0.98746238  0.53844610     0.05930
C1052       C  0.93859976  0.00509568  0.53724050    -0.02620
Br1053     Br  0.94247349  0.04392408  0.53116499    -0.02310
H1054       H  0.89471270  0.00831781  0.54214646     0.09850
H1055       H  0.97440996  0.94541830  0.54251655     0.07860
Br1056     Br  0.92848766  0.90896018  0.55152165    -0.02740
C1057       C  0.48892011  0.01284520  0.12848569    -0.09380
C1058       C  0.50063100  0.03787012  0.13693168     0.06820
C1059       C  0.51946731  0.05165441  0.11953542    -0.03140
C1060       C  0.52546240  0.04092069  0.09357421    -0.07590
C1061       C  0.51229671  0.01691195  0.08443107     0.05930
C1062       C  0.49432710  0.00252324  0.10223248    -0.02620
Br1063     Br  0.47601648  0.96932686  0.09099109    -0.02310
H1064       H  0.47452402  0.00203017  0.14182389     0.09850
H1065       H  0.53910401  0.05226671  0.07987444     0.07860
Br1066     Br  0.53672204  0.08560859  0.13004494    -0.02740
C1067       C  0.47201939  0.95131624  0.88725569    -0.09380
C1068       C  0.49338184  0.95363971  0.86769254     0.06820
C1069       C  0.51929287  0.96317578  0.87639250    -0.03140
C1070       C  0.52306210  0.97055374  0.90386579    -0.07590
C1071       C  0.50166445  0.96878262  0.92318691     0.05930
C1072       C  0.47595365  0.95868071  0.91468964    -0.02620
Br1073     Br  0.44602900  0.95278966  0.93996462    -0.02310
H1074       H  0.45202661  0.94365954  0.88123284     0.09850
H1075       H  0.54283996  0.97806240  0.91007508     0.07860
Br1076     Br  0.55085878  0.96491324  0.85257418    -0.02740
C1077       C  0.53221286  0.09434085  0.95999966    -0.09380
C1078       C  0.50947188  0.08073484  0.97205817     0.06820
C1079       C  0.48433903  0.09558256  0.97484778    -0.03140
C1080       C  0.48209907  0.12200829  0.96388962    -0.07590
C1081       C  0.50435906  0.13492221  0.95101665     0.05930
C1082       C  0.52985880  0.12144561  0.94990049    -0.02620
Br1083     Br  0.56150516  0.13910445  0.93405269    -0.02310
H1084       H  0.55179442  0.08391473  0.95830638     0.09850
H1085       H  0.46260340  0.13267930  0.96535319     0.07860
Br1086     Br  0.45149867  0.08247671  0.99332109    -0.02740
C1087       C  0.51856099  0.89877354  0.00984465    -0.09380
C1088       C  0.49720664  0.91815620  0.01009063     0.06820
C1089       C  0.47072501  0.90928635  0.01901036    -0.03140
C1090       C  0.46686713  0.88256964  0.02919366    -0.07590
C1091       C  0.48867591  0.86393078  0.03082920     0.05930
C1092       C  0.51461043  0.87200920  0.02042958    -0.02620
Br1093     Br  0.54605008  0.84871867  0.02358697    -0.02310
H1094       H  0.53886432  0.90497667  0.00322340     0.09850
H1095       H  0.44661832  0.87648569  0.03645655     0.07860
Br1096     Br  0.43842380  0.93208292  0.01848296    -0.02740
C1097       C  0.60931058  0.03200862  0.87695005    -0.09380
C1098       C  0.58659585  0.04059367  0.86182317     0.06820
C1099       C  0.56021954  0.03902956  0.87373618    -0.03140
C1100       C  0.55715056  0.03020853  0.90104772    -0.07590
C1101       C  0.58000472  0.02175509  0.91645819     0.05930
C1102       C  0.60636177  0.02233085  0.90377622    -0.02620
Br1103     Br  0.63968285  0.01029167  0.92115081    -0.02310
H1104       H  0.62966225  0.03296479  0.86777888     0.09850
H1105       H  0.53685929  0.03029521  0.91035268     0.07860
Br1106     Br  0.52812018  0.05002060  0.85403573    -0.02740
C1107       C  0.58646350  0.99047902  0.09642981    -0.09380
C1108       C  0.58016095  0.96959879  0.07752056     0.06820
C1109       C  0.57389546  0.94296470  0.08747667    -0.03140
C1110       C  0.57704393  0.93695071  0.11535056    -0.07590
C1111       C  0.58502911  0.95739177  0.13399995     0.05930
C1112       C  0.58833729  0.98475671  0.12455039    -0.02620
Br1113     Br  0.59716385  0.01477666  0.14848335    -0.02310
H1114       H  0.59018250  0.01138358  0.08922905     0.09850
H1115       H  0.57386816  0.91593183  0.12245182     0.07860
Br1116     Br  0.56257217  0.91346053  0.06430426    -0.02740
C1117       C  0.59093718  0.88605820  0.94523258    -0.09380
C1118       C  0.59845640  0.86506145  0.96352881     0.06820
C1119       C  0.60275012  0.87191731  0.99129730    -0.03140
C1120       C  0.59737160  0.89891225  0.00055265    -0.07590
C1121       C  0.58871182  0.91958342  0.98225398     0.05930
C1122       C  0.58699207  0.91308409  0.95418853    -0.02620
Br1123     Br  0.58214536  0.94077542  0.92667396    -0.02310
H1124       H  0.58898304  0.88161384  0.92355959     0.09850
H1125       H  0.60144367  0.90408835  0.02167350     0.07860
Br1126     Br  0.61883361  0.84612262  0.01644692    -0.02740
C1127       C  0.60760962  0.11563961  0.05115748    -0.09380
C1128       C  0.58616329  0.13472267  0.04895887     0.06820
C1129       C  0.56059146  0.12552143  0.03876049    -0.03140
C1130       C  0.55711045  0.09770393  0.03114077    -0.07590
C1131       C  0.57892107  0.07885115  0.03302010     0.05930
C1132       C  0.60431212  0.08819905  0.04360319    -0.02620
Br1133     Br  0.63570030  0.06477740  0.04929150    -0.02310
H1134       H  0.62745777  0.12209422  0.05878000     0.09850
H1135       H  0.53751744  0.09099370  0.02315282     0.07860
Br1136     Br  0.52954567  0.14946965  0.03555487    -0.02740
C1137       C  0.49878616  0.40545006  0.98237275    -0.09380
C1138       C  0.52254361  0.41455319  0.96862496     0.06820
C1139       C  0.53628706  0.39654548  0.95060977    -0.03140
C1140       C  0.52590563  0.36997279  0.94635953    -0.07590
C1141       C  0.50136556  0.36145548  0.95911164     0.05930
C1142       C  0.48796286  0.37920642  0.97753630    -0.02620
Br1143     Br  0.45452379  0.36877845  0.99596302    -0.02310
H1144       H  0.48780020  0.41929873  0.99582536     0.09850
H1145       H  0.53625739  0.35641649  0.93203746     0.07860
Br1146     Br  0.56849488  0.40773503  0.93047566    -0.02740
C1147       C  0.56811444  0.59572589  0.97655449    -0.09380
C1148       C  0.57319727  0.57529809  0.95693277     0.06820
C1149       C  0.58658190  0.58287070  0.93231874    -0.03140
C1150       C  0.59401467  0.61048657  0.92755228    -0.07590
C1151       C  0.58824220  0.63122909  0.94693925     0.05930
C1152       C  0.57517176  0.62342762  0.97175978    -0.02620
Br1153     Br  0.56740197  0.64909379  0.00050170    -0.02310
H1154       H  0.55809717  0.59029551  0.99553942     0.09850
H1155       H  0.60429766  0.61571298  0.90842848     0.07860
Br1156     Br  0.59651178  0.55596100  0.90527069    -0.02740
C1157       C  0.42398986  0.54493097  0.93123183    -0.09380
C1158       C  0.40509804  0.54308656  0.95307621     0.06820
C1159       C  0.41406937  0.53318049  0.97870020    -0.03140
C1160       C  0.44163287  0.52587673  0.98199834    -0.07590
C1161       C  0.46076000  0.52879593  0.96049282     0.05930
C1162       C  0.45145944  0.53788910  0.93462063    -0.02620
Br1163     Br  0.47503011  0.54165156  0.90293484    -0.02310
H1164       H  0.41738356  0.55207222  0.91124594     0.09850
H1165       H  0.44816423  0.51807515  0.00160740     0.07860
Br1166     Br  0.39052076  0.53095130  0.01040223    -0.02740
C1167       C  0.64327391  0.49317146  0.97249425    -0.09380
C1168       C  0.62271963  0.48737624  0.95318488     0.06820
C1169       C  0.63075170  0.47383399  0.92852255    -0.03140
C1170       C  0.65759497  0.46440431  0.92511482    -0.07590
C1171       C  0.67764717  0.46860845  0.94508242     0.05930
C1172       C  0.67055311  0.48424881  0.96847772    -0.02620
Br1173     Br  0.69673891  0.49276978  0.99623210    -0.02310
H1174       H  0.63802616  0.50406494  0.99109389     0.09850
H1175       H  0.66283826  0.45355705  0.90641748     0.07860
Br1176     Br  0.60712242  0.46709766  0.89768208    -0.02740
C1177       C  0.15282766  0.55454560  0.95030300    -0.09380
C1178       C  0.17470646  0.55235832  0.96873661     0.06820
C1179       C  0.16886250  0.54489164  0.99633791    -0.03140
C1180       C  0.14153708  0.53980843  0.00468368    -0.07590
C1181       C  0.11984013  0.54281384  0.98610949     0.05930
C1182       C  0.12579654  0.55034383  0.95870409    -0.02620
Br1183     Br  0.09811801  0.55448688  0.93109328    -0.02310
H1184       H  0.15664144  0.55964125  0.92894703     0.09850
H1185       H  0.13715858  0.53437799  0.02586500     0.07860
Br1186     Br  0.19650029  0.54359430  0.02411774    -0.02740
C1187       C  0.06122034  0.55064233  0.12647353    -0.09380
C1188       C  0.08838544  0.54384614  0.13289645     0.06820
C1189       C  0.10550784  0.53255031  0.11239511    -0.03140
C1190       C  0.09576320  0.52957882  0.08562877    -0.07590
C1191       C  0.06910268  0.53793185  0.07881593     0.05930
C1192       C  0.05147906  0.54779691  0.09971042    -0.02620
Br1193     Br  0.01352403  0.55630040  0.09329898    -0.02310
H1194       H  0.04770734  0.55882596  0.14219333     0.09850
H1195       H  0.10923175  0.52113215  0.07001457     0.07860
Br1196     Br  0.14192354  0.51980616  0.12013976    -0.02740
C1197       C  0.00306674  0.52013741  0.87326997    -0.09380
C1198       C  0.00328973  0.54754779  0.86400551     0.06820
C1199       C  0.01451858  0.56825417  0.88056138    -0.03140
C1200       C  0.02431839  0.56151808  0.90647035    -0.07590
C1201       C  0.02246139  0.53439426  0.91689756     0.05930
C1202       C  0.01210199  0.51339597  0.89967703    -0.02620
Br1203     Br  0.00690101  0.47586843  0.91112291    -0.02310
H1204       H  0.99444614  0.50413259  0.86043717     0.09850
H1205       H  0.03263493  0.57797292  0.91893302     0.07860
Br1206     Br  0.01691634  0.60611999  0.86887840    -0.02740
C1207       C  0.95059356  0.56138898  0.03462315    -0.09380
C1208       C  0.95947030  0.53384392  0.03137759     0.06820
C1209       C  0.94003768  0.51261347  0.03636022    -0.03140
C1210       C  0.91284731  0.51911613  0.04382543    -0.07590
C1211       C  0.90451696  0.54661116  0.04682881     0.05930
C1212       C  0.92368554  0.56784993  0.04183320    -0.02620
Br1213     Br  0.91414776  0.60633455  0.04263517    -0.02310
H1214       H  0.96458560  0.57851038  0.03109946     0.09850
H1215       H  0.89828256  0.50259554  0.04792366     0.07860
Br1216     Br  0.94858059  0.47460912  0.03358842    -0.02740
C1217       C  0.92289338  0.43461386  0.95476438    -0.09380
C1218       C  0.90780664  0.45818180  0.94828574     0.06820
C1219       C  0.91995150  0.48435208  0.95184985    -0.03140
C1220       C  0.94708116  0.48644628  0.96140710    -0.07590
C1221       C  0.96231883  0.46266536  0.96793495     0.05930
C1222       C  0.94961402  0.43638628  0.96449881    -0.02620
Br1223     Br  0.96652639  0.40121691  0.97206936    -0.02310
H1224       H  0.91370659  0.41437284  0.95221313     0.09850
H1225       H  0.95614300  0.50671971  0.96399637     0.07860
Br1226     Br  0.90084259  0.51757416  0.94271627    -0.02740
C1227       C  0.03447867  0.47378228  0.10447945    -0.09380
C1228       C  0.01953770  0.46130082  0.08328921     0.06820
C1229       C  0.99762120  0.44340695  0.09039168    -0.03140
C1230       C  0.98970023  0.44030016  0.11762158    -0.07590
C1231       C  0.00494426  0.45173488  0.13915750     0.05930
C1232       C  0.02810726  0.46828735  0.13224712    -0.02620
Br1233     Br  0.05396131  0.48093290  0.15886173    -0.02310
H1234       H  0.05235419  0.48620008  0.09945724     0.09850
H1235       H  0.97170964  0.42776654  0.12168294     0.07860
Br1236     Br  0.97829908  0.42039594  0.06480468    -0.02740
C1237       C  0.09040709  0.43011088  0.88522894    -0.09380
C1238       C  0.09149186  0.45311400  0.86758230     0.06820
C1239       C  0.08537395  0.47936462  0.87827742    -0.03140
C1240       C  0.07826218  0.48207850  0.90611071    -0.07590
C1241       C  0.07631157  0.45890465  0.92349062     0.05930
C1242       C  0.08282930  0.43271048  0.91278561    -0.02620
Br1243     Br  0.08309981  0.39973754  0.93490127    -0.02310
H1244       H  0.09547312  0.40981446  0.87749596     0.09850
H1245       H  0.07322772  0.50225996  0.91392448     0.07860
Br1246     Br  0.08734693  0.51217447  0.85619347    -0.02740
C1247       C  0.12578895  0.43760693  0.03857732    -0.09380
C1248       C  0.12173755  0.45476350  0.01563767     0.06820
C1249       C  0.14521358  0.46513798  0.00182452    -0.03140
C1250       C  0.17154756  0.46104427  0.01307577    -0.07590
C1251       C  0.17536779  0.44447573  0.03670800     0.05930
C1252       C  0.15192266  0.43115167  0.04808265    -0.02620
Br1253     Br  0.15309692  0.40049741  0.07328497    -0.02310
H1254       H  0.10834215  0.42792499  0.04875127     0.09850
H1255       H  0.18913539  0.47013539  0.00267570     0.07860
Br1256     Br  0.14312729  0.48051444  0.96562978    -0.02740
C1257       C  0.41858049  0.47334305  0.06082331    -0.09380
C1258       C  0.40599436  0.45774623  0.04037385     0.06820
C1259       C  0.42033502  0.45251986  0.01583595    -0.03140
C1260       C  0.44756770  0.46160572  0.01269816    -0.07590
C1261       C  0.46089967  0.47612392  0.03377929     0.05930
C1262       C  0.44547186  0.48304471  0.05764550    -0.02620
Br1263     Br  0.45866338  0.50643301  0.08661328    -0.02310
H1264       H  0.40737655  0.47786833  0.07956892     0.09850
H1265       H  0.45835302  0.45709938  0.99375509     0.07860
Br1266     Br  0.40404035  0.43168215  0.98685819    -0.02740
C1267       C  0.49034090  0.61825597  0.04232258    -0.09380
C1268       C  0.50922386  0.63644411  0.05401873     0.06820
C1269       C  0.53634621  0.62757599  0.05854034    -0.03140
C1270       C  0.54423932  0.60089621  0.05062906    -0.07590
C1271       C  0.52528561  0.58285151  0.03841923     0.05930
C1272       C  0.49803803  0.59162705  0.03504297    -0.02620
Br1273     Br  0.46945588  0.56712855  0.02465536    -0.02310
H1274       H  0.46915471  0.62450425  0.03971323     0.09850
H1275       H  0.56500151  0.59400552  0.05454701     0.07860
Br1276     Br  0.56256302  0.65041933  0.07701215    -0.02740
C1277       C  0.62466578  0.54579510  0.04127155    -0.09380
C1278       C  0.62169947  0.51714860  0.04456586     0.06820
C1279       C  0.64488477  0.50136918  0.05131400    -0.03140
C1280       C  0.67044766  0.51424563  0.05465820    -0.07590
C1281       C  0.67343792  0.54293881  0.05175500     0.05930
C1282       C  0.65007631  0.55882944  0.04519340    -0.02620
Br1283     Br  0.65117487  0.59832829  0.04172266    -0.02310
H1284       H  0.60679455  0.55826864  0.03677267     0.09850
H1285       H  0.68801037  0.50178436  0.06018815     0.07860
Br1286     Br  0.64286086  0.46237135  0.05660999    -0.02740
C1287       C  0.56178560  0.37425615  0.04573824    -0.09380
C1288       C  0.58949421  0.36734924  0.04247679     0.06820
C1289       C  0.60817926  0.38764660  0.03288799    -0.03140
C1290       C  0.59900229  0.41442121  0.02708526    -0.07590
C1291       C  0.57199300  0.42208832  0.03330948     0.05930
C1292       C  0.55303728  0.40145017  0.04198442    -0.02620
Br1293     Br  0.51502066  0.40906661  0.04998372    -0.02310
H1294       H  0.54721492  0.35884202  0.05299775     0.09850
H1295       H  0.61342401  0.42967750  0.01938660     0.07860
Br1296     Br  0.64665318  0.38028499  0.02871465    -0.02740
C1297       C  0.97410021  0.37763792  0.51222151    -0.09380
C1298       C  0.98983382  0.36566429  0.53308693     0.06820
C1299       C  0.01102353  0.38100351  0.54521651    -0.03140
C1300       C  0.01594564  0.40819859  0.53672072    -0.07590
C1301       C  0.00059346  0.42012980  0.51557489     0.05930
C1302       C  0.97922415  0.40481542  0.50354260    -0.02620
Br1303     Br  0.95552920  0.42075330  0.47654630    -0.02310
H1304       H  0.95727491  0.36613840  0.50330440     0.09850
H1305       H  0.03140557  0.42035660  0.54697403     0.07860
Br1306     Br  0.03304790  0.36558551  0.57392716    -0.02740
C1307       C  0.98475540  0.62598889  0.46850934    -0.09380
C1308       C  0.00287689  0.63533639  0.44817127     0.06820
C1309       C  0.02324264  0.61746656  0.43811472    -0.03140
C1310       C  0.02570030  0.59070863  0.44902286    -0.07590
C1311       C  0.00725917  0.58094984  0.46928240     0.05930
C1312       C  0.98630621  0.59913705  0.47884933    -0.02620
Br1313     Br  0.95820701  0.58974449  0.50552810    -0.02310
H1314       H  0.96859515  0.63950852  0.47578071     0.09850
H1315       H  0.04162540  0.57730473  0.44110050     0.07860
Br1316     Br  0.04713944  0.62849318  0.40862349    -0.02740
C1317       C  0.00495379  0.43960516  0.38804000    -0.09380
C1318       C  0.99228005  0.45827977  0.37016255     0.06820
C1319       C  0.98408844  0.48419486  0.38005379    -0.03140
C1320       C  0.98858388  0.49094834  0.40754188    -0.07590
C1321       C  0.00118951  0.47222365  0.42563718     0.05930
C1322       C  0.00955143  0.44632800  0.41549554    -0.02620
Br1323     Br  0.02488139  0.41809252  0.43811288    -0.02310
H1324       H  0.01075300  0.41934935  0.38070538     0.09850
H1325       H  0.98193035  0.51092996  0.41488246     0.07860
Br1326     Br  0.96430180  0.50990206  0.35766860    -0.02740
C1327       C  0.02507438  0.54294820  0.62847843    -0.09380
C1328       C  0.00071777  0.53315790  0.64049865     0.06820
C1329       C  0.98456116  0.51379980  0.62663160    -0.03140
C1330       C  0.99192615  0.50595281  0.60013054    -0.07590
C1331       C  0.01506321  0.51751087  0.58684658     0.05930
C1332       C  0.03237123  0.53542980  0.60173822    -0.02620
Br1333     Br  0.06404098  0.55336686  0.58647162    -0.02310
H1334       H  0.03755618  0.55786480  0.63930821     0.09850
H1335       H  0.97858566  0.49185059  0.58923865     0.07860
Br1336     Br  0.95147133  0.49879469  0.64248428    -0.02740
C1337       C  0.44680903  0.93811325  0.48319922    -0.09380
C1338       C  0.45799027  0.96495090  0.48160037     0.06820
C1339       C  0.44098319  0.98662744  0.47205682    -0.03140
C1340       C  0.41427258  0.98072372  0.46317271    -0.07590
C1341       C  0.40429703  0.95357840  0.46299134     0.05930
C1342       C  0.42050099  0.93227814  0.47376316    -0.02620
Br1343     Br  0.40780005  0.89473977  0.47604088    -0.02310
H1344       H  0.45892550  0.92116489  0.49107619     0.09850
H1345       H  0.40178497  0.99718970  0.45486048     0.07860
Br1346     Br  0.45311292  0.02401918  0.46728584    -0.02740
C1347       C  0.63454239  0.98003107  0.53911459    -0.09380
C1348       C  0.62115673  0.95714016  0.52744235     0.06820
C1349       C  0.63626388  0.93241349  0.52387901    -0.03140
C1350       C  0.66358733  0.93109039  0.53232341    -0.07590
C1351       C  0.67672281  0.95394711  0.54385340     0.05930
C1352       C  0.66215207  0.97870298  0.54696687    -0.02620
Br1353     Br  0.67877861  0.01070521  0.56291086    -0.02310
H1354       H  0.62359590  0.99919685  0.54184655     0.09850
H1355       H  0.67464253  0.91182623  0.53025227     0.07860
Br1356     Br  0.62136055  0.89896445  0.50884947    -0.02740
C1357       C  0.59049101  0.98401781  0.40837508    -0.09380
C1358       C  0.57050786  0.96532157  0.41824112     0.06820
C1359       C  0.55919979  0.94576352  0.39971472    -0.03140
C1360       C  0.56856125  0.94487241  0.37262269    -0.07590
C1361       C  0.58922785  0.96270012  0.36332613     0.05930
C1362       C  0.60011542  0.98252778  0.38121675    -0.02620
Br1363     Br  0.62874562  0.00721351  0.36944996    -0.02310
H1364       H  0.59931539  0.99921015  0.42200755     0.09850
H1365       H  0.56032837  0.92941736  0.35889348     0.07860
Br1366     Br  0.53105552  0.91913942  0.40912420    -0.02740
C1367       C  0.50336465  0.94596530  0.58525499    -0.09380
C1368       C  0.53005803  0.95579054  0.58042592     0.06820
C1369       C  0.54675740  0.96165321  0.60326430    -0.03140
C1370       C  0.53632887  0.95742415  0.63014464    -0.07590
C1371       C  0.50915917  0.94800528  0.63465938     0.05930
C1372       C  0.49232220  0.94370653  0.61156168    -0.02620
Br1373     Br  0.45323849  0.93752846  0.61355747    -0.02310
H1374       H  0.49047321  0.94047658  0.56815087     0.09850
H1375       H  0.54971545  0.96077850  0.64747096     0.07860
Br1376     Br  0.58452478  0.97226431  0.59896797    -0.02740
C1377       C  0.05904714  0.62910741  0.54359261    -0.09380
C1378       C  0.08425313  0.64152593  0.53666827     0.06820
C1379       C  0.10272456  0.62765181  0.51952260    -0.03140
C1380       C  0.09736503  0.60051442  0.51225798    -0.07590
C1381       C  0.07366041  0.58646878  0.52179728     0.05930
C1382       C  0.05330323  0.60183409  0.53580430    -0.02620
Br1383     Br  0.01818090  0.58713704  0.54623417    -0.02310
H1384       H  0.04436584  0.64018864  0.55616591     0.09850
H1385       H  0.11257948  0.59005809  0.49978086     0.07860
Br1386     Br  0.13606317  0.64453387  0.50618723    -0.02740
C1387       C  0.07051565  0.40382060  0.48788298    -0.09380
C1388       C  0.09168513  0.42342362  0.48525028     0.06820
C1389       C  0.11677526  0.41494744  0.47291280    -0.03140
C1390       C  0.11944340  0.38813849  0.46280711    -0.07590
C1391       C  0.09780557  0.36900885  0.46459473     0.05930
C1392       C  0.07319283  0.37695705  0.47771103    -0.02620
Br1393     Br  0.04141140  0.35339689  0.47968154    -0.02310
H1394       H  0.05114476  0.40983680  0.49651504     0.09850
H1395       H  0.13871589  0.38224080  0.45327903     0.07860
Br1396     Br  0.14870429  0.43817305  0.46868407    -0.02740
C1397       C  0.10999908  0.52960048  0.37753910    -0.09380
C1398       C  0.08762684  0.53788426  0.36168916     0.06820
C1399       C  0.06091502  0.53578442  0.37280991    -0.03140
C1400       C  0.05711037  0.52676859  0.40000460    -0.07590
C1401       C  0.07972069  0.51975080  0.41639702     0.05930
C1402       C  0.10636547  0.52036223  0.40447233    -0.02620
Br1403     Br  0.13898526  0.50883772  0.42338377    -0.02310
H1404       H  0.13060692  0.53076095  0.36899802     0.09850
H1405       H  0.03659935  0.52668905  0.40876843     0.07860
Br1406     Br  0.02949377  0.54777633  0.35266107    -0.02740
C1407       C  0.09152061  0.48796773  0.59878353    -0.09380
C1408       C  0.08646869  0.46869440  0.57807277     0.06820
C1409       C  0.08557401  0.44057654  0.58517569    -0.03140
C1410       C  0.08707415  0.43257941  0.61285094    -0.07590
C1411       C  0.09023230  0.45222686  0.63387908     0.05930
C1412       C  0.09272933  0.48029116  0.62643638    -0.02620
Br1413     Br  0.10047233  0.50902699  0.65226908    -0.02310
H1414       H  0.09544702  0.50914420  0.59331230     0.09850
H1415       H  0.08678356  0.41076856  0.61786121     0.07860
Br1416     Br  0.08829839  0.41251295  0.55785655    -0.02740
loop_ 
_geom_bond_atom_site_label_1 
_geom_bond_atom_site_label_2 
_geom_bond_distance 
_geom_bond_site_symmetry_2 
_ccdc_geom_bond_type 
O1           Cu9   2.777       .  S
O1           C11   1.287       .  A
O2           Cu9   2.442       .  S
O2           C12   1.335       .  A
O3           Cu9   2.451       .  S
O3           C13   1.281       .  A
O4           Cu9   2.542       .  S
O4           C14   1.310       .  A
O5          Cu10   1.947       .  S
O5           C14   1.251       .  A
O6          Cu10   1.886       .  S
O6           C13   1.253       .  A
O7          Cu10   2.006       .  S
O7           C12   1.270       .  A
O8          Cu10   1.967       .  S
O8           C11   1.269       .  A
Cu9         Cu10   3.410       .  S
C11        C1401   1.482       .  S
C12        C1408   1.483       .  S
C13        C1381   1.488       .  S
C14        C1388   1.494       .  S
O15         Cu23   1.970       .  S
O15          C25   1.261       .  A
O16         Cu23   1.898       .  S
O16          C26   1.253       .  A
O17         Cu23   1.990       .  S
O17          C27   1.265       .  A
O18         Cu23   1.952       .  S
O18          C28   1.268       .  A
O19         Cu24   2.703   1_565  S
O19          C28   1.285       .  A
O20         Cu24   2.433   1_565  S
O20          C27   1.331       .  A
O21         Cu24   2.439   1_565  S
O21          C26   1.285       .  A
O22         Cu24   2.574   1_565  S
O22          C25   1.317       .  A
Cu23        Cu24   3.419   1_565  S
C25        C1368   1.490       .  S
C26        C1358   1.485       .  S
C27        C1348   1.489       .  S
C28        C1338   1.490       .  S
O29         Cu37   1.900       .  S
O29          C39   1.253   1_655  A
O30         Cu37   1.967       .  S
O30          C40   1.257   1_655  A
O31         Cu37   1.946       .  S
O31          C41   1.268   1_655  A
O32         Cu37   1.997       .  S
O32          C42   1.269   1_655  A
O33         Cu38   2.433       .  S
O33          C42   1.328       .  A
O34         Cu38   2.664       .  S
O34          C41   1.286       .  A
O35         Cu38   2.608       .  S
O35          C40   1.316       .  A
O36         Cu38   2.446       .  S
O36          C39   1.289       .  A
Cu37        Cu38   3.420   1_655  S
C39        C1311   1.491       .  S
C40        C1301   1.470       .  S
C41        C1331   1.477       .  S
C42        C1321   1.482       .  S
O43         Cu51   1.931       .  S
O43          C53   1.269       .  A
O44         Cu51   1.977       .  S
O44          C54   1.275       .  A
O45         Cu51   1.950       .  S
O45          C55   1.257       .  A
O46         Cu51   1.982       .  S
O46          C56   1.239       .  A
O47         Cu52   2.556   1_554  S
O47          C56   1.280       .  A
O48         Cu52   2.481   1_554  S
O48          C55   1.278       .  A
O49         Cu52   2.737   1_554  S
O49          C54   1.297       .  A
O50         Cu52   2.337   1_554  S
O50          C53   1.316       .  A
Cu51        Cu52   3.519   1_554  S
C53        C1291   1.480       .  S
C54        C1271   1.475       .  S
C55        C1261   1.489       .  S
C56        C1278   1.475       .  S
N57          N58   1.322       .  A
N57          C61   1.352       .  A
N57         Cu65   2.094       .  S
N58          C59   1.341       .  A
N58         Cu64   2.087       .  S
C59          C60   1.390       .  A
C59          H62   1.077       .  S
C60        C1251   1.502       .  S
C60          C61   1.394       .  A
C61          H63   1.081       .  S
Cu64         N67   2.086       .  S
Cu65         N75   2.093       .  S
Cu66         N68   2.059       .  S
Cu66         N74   2.061       .  S
N67          N68   1.320       .  A
N67          C71   1.348       .  A
N68          C69   1.344       .  A
C69          C70   1.381       .  A
C69          H72   1.082       .  S
C70         C933   1.473       .  S
C70          C71   1.387       .  A
C71          H73   1.082       .  S
N74          N75   1.323       .  A
N74          C78   1.340       .  A
N75          C76   1.351       .  A
C76          C77   1.386       .  A
C76          H79   1.082       .  S
C77        C1258   1.472       .  S
C77          C78   1.377       .  A
C78          H80   1.082       .  S
N81          N82   1.324       .  A
N81          C85   1.353       .  A
N81         Cu89   2.116       .  S
N82          C83   1.339       .  A
N82         Cu88   2.053       .  S
C83          C84   1.377       .  A
C83          H86   1.082       .  S
C84        C1411   1.487       .  S
C84          C85   1.395       .  A
C85          H87   1.081       .  S
Cu88         N91   2.052       .  S
Cu89         N99   2.115       .  S
Cu90         N92   2.050       .  S
Cu90         N98   2.050       .  S
N91          N92   1.317       .  A
N91          C95   1.342       .  A
N92          C93   1.342       .  A
C93          C94   1.381       .  A
C93          H96   1.082       .  S
C94         C861   1.462       .  S
C94          C95   1.382       .  A
C95          H97   1.082       .  S
N98          N99   1.323       .  A
N98         C102   1.338       .  A
N99         C100   1.355       .  A
C100        C101   1.394       .  A
C100        H103   1.082       .  S
C101       C1238   1.483       .  S
C101        C102   1.376       .  A
C102        H104   1.082       .  S
N105        N106   1.325       .  A
N105        C109   1.349       .  A
N105       Cu113   2.093       .  S
N106        C107   1.340       .  A
N106       Cu112   2.064       .  S
C107        C108   1.376       .  A
C107        H110   1.082       .  S
C108       C1318   1.472       .  S
C108        C109   1.386       .  A
C109        H111   1.082   1_655  S
Cu112       N115   2.062       .  S
Cu113       N123   2.091       .  S
Cu114       N116   2.057       .  S
Cu114       N122   2.057       .  S
N115        N116   1.318       .  A
N115        C119   1.343       .  A
N116        C117   1.345       .  A
C117        C118   1.382       .  A
C117        H120   1.082       .  S
C118        C748   1.466       .  S
C118        C119   1.383       .  A
C119        H121   1.082       .  S
N122        N123   1.320       .  A
N122        C126   1.333       .  A
N123        C124   1.352   1_655  A
C124        C125   1.397   1_455  A
C124        H127   1.079       .  S
C125       C1231   1.496   1_655  S
C125        C126   1.386       .  A
C126        H128   1.080       .  S
O129       Cu137   1.940       .  S
O129        C139   1.264       .  A
O130       Cu137   1.992   1_556  S
O130        C140   1.268       .  A
O131       Cu137   1.940       .  S
O131        C141   1.255       .  A
O132       Cu137   1.885   1_556  S
O132        C142   1.249   1_455  A
O133       Cu138   2.449       .  S
O133        C142   1.284   1_455  A
O134       Cu138   2.573       .  S
O134        C141   1.312   1_556  A
O135       Cu138   2.430       .  S
O135        C140   1.333       .  A
O136       Cu138   2.731   1_554  S
O136        C139   1.288       .  A
Cu137      Cu138   3.435   1_554  S
C139       C1228   1.481       .  S
C140       C1241   1.482       .  S
C141       C1248   1.495       .  S
C142       C1221   1.491       .  S
N143        N144   1.323       .  A
N143        C147   1.348       .  A
N143       Cu151   2.101       .  S
N144        C145   1.343       .  A
N144       Cu150   2.064       .  S
C145        C146   1.381       .  A
C145        H148   1.082       .  S
C146       C1281   1.483       .  S
C146        C147   1.390       .  A
C147        H149   1.081       .  S
Cu150       N153   2.061       .  S
Cu151       N161   2.099       .  S
Cu152       N154   2.055       .  S
Cu152       N160   2.055       .  S
N153        N154   1.319       .  A
N153        C157   1.343       .  A
N154        C155   1.343       .  A
C155        C156   1.381       .  A
C155        H158   1.082       .  S
C156        C772   1.463       .  S
C156        C157   1.382       .  A
C157        H159   1.082       .  S
N160        N161   1.323       .  A
N160        C164   1.339       .  A
N161        C162   1.352       .  A
C162        C163   1.389       .  A
C162        H165   1.082       .  S
C163       C1211   1.477       .  S
C163        C164   1.377       .  A
C164        H166   1.082       .  S
N167        N168   1.323       .  A
N167        C171   1.343       .  A
N167       Cu175   2.052       .  S
N168        C169   1.343       .  A
N168       Cu174   2.075       .  S
C169        C170   1.380       .  A
C169        H172   1.082       .  S
C170       C1328   1.461   1_655  S
C170        C171   1.375       .  A
C171        H173   1.082   1_655  S
Cu174       N177   2.074       .  S
Cu175       N185   2.053       .  S
Cu176       N178   2.070       .  S
Cu176       N184   2.070       .  S
N177        N178   1.322       .  A
N177        C181   1.346       .  A
N178        C179   1.344       .  A
C179        C180   1.381       .  A
C179        H182   1.082       .  S
C180        C892   1.468       .  S
C180        C181   1.383       .  A
C181        H183   1.082       .  S
N184        N185   1.322       .  A
N184        C188   1.342       .  A
N185        C186   1.343       .  A
C186        C187   1.378       .  A
C186        H189   1.082   1_655  S
C187       C1198   1.465   1_655  S
C187        C188   1.382       .  A
C188        H190   1.082       .  S
N191        N192   1.323       .  A
N191        C195   1.349       .  A
N191       Cu199   2.086       .  S
N192        C193   1.341       .  A
N192       Cu198   2.064       .  S
C193        C194   1.379       .  A
C193        H196   1.082       .  S
C194       C1398   1.475       .  S
C194        C195   1.386       .  A
C195        H197   1.082       .  S
Cu198       N201   2.063       .  S
Cu199       N209   2.087       .  S
Cu200       N202   2.064       .  S
Cu200       N208   2.065       .  S
N201        N202   1.320       .  A
N201        C205   1.344       .  A
N202        C203   1.344       .  A
C203        C204   1.382       .  A
C203        H206   1.082       .  S
C204        C813   1.467       .  S
C204        C205   1.382       .  A
C205        H207   1.082       .  S
N208        N209   1.323       .  A
N208        C212   1.342       .  A
N209        C210   1.347       .  A
C210        C211   1.386       .  A
C210        H213   1.081       .  S
C211       C1188   1.475       .  S
C211        C212   1.380       .  A
C212        H214   1.082       .  S
O215       Cu223   1.998       .  S
O215        C225   1.267       .  A
O216       Cu223   1.941   1_556  S
O216        C226   1.266       .  A
O217       Cu223   1.874   1_655  S
O217        C227   1.253       .  A
O218       Cu223   1.948   1_556  S
O218        C228   1.255       .  A
O219       Cu224   2.581       .  S
O219        C228   1.312   1_554  A
O220       Cu224   2.477       .  S
O220        C227   1.291   1_455  A
O221       Cu224   2.713   1_556  S
O221        C226   1.285       .  A
O222       Cu224   2.431       .  S
O222        C225   1.331       .  A
Cu223      Cu224   3.436       .  S
C225       C1191   1.475       .  S
C226       C1201   1.483       .  S
C227       C1208   1.501       .  S
C228       C1181   1.473       .  S
N229        N230   1.324       .  A
N229        C233   1.349       .  A
N229       Cu237   2.089       .  S
N230        C231   1.344       .  A
N230       Cu236   2.088       .  S
C231        C232   1.388       .  A
C231        H234   1.082       .  S
C232       C1171   1.493       .  S
C232        C233   1.389       .  A
C233        H235   1.080       .  S
Cu236       N239   2.086       .  S
Cu237       N247   2.087       .  S
Cu238       N240   2.062       .  S
Cu238       N246   2.062       .  S
N239        N240   1.321       .  A
N239        C243   1.349       .  A
N240        C241   1.344       .  A
C241        C242   1.381       .  A
C241        H244   1.082       .  S
C242        C868   1.473       .  S
C242        C243   1.387       .  A
C243        H245   1.082       .  S
N246        N247   1.322       .  A
N246        C250   1.339       .  A
N247        C248   1.351       .  A
C248        C249   1.389       .  A
C248        H251   1.082       .  S
C249       C1218   1.479       .  S
C249        C250   1.381       .  A
C250        H252   1.082       .  S
N253        N254   1.322       .  A
N253        C257   1.350       .  A
N253       Cu261   2.082       .  S
N254        C255   1.338       .  A
N254       Cu260   2.069       .  S
C255        C256   1.385       .  A
C255        H258   1.082       .  S
C256       C1178   1.487       .  S
C256        C257   1.390       .  A
C257        H259   1.081       .  S
Cu260       N263   2.065       .  S
Cu261       N271   2.082       .  S
Cu262       N264   2.051       .  S
Cu262       N270   2.051       .  S
N263        N264   1.318       .  A
N263        C267   1.344       .  A
N264        C265   1.343       .  A
C265        C266   1.380       .  A
C265        H268   1.082       .  S
C266        C820   1.465       .  S
C266        C267   1.384       .  A
C267        H269   1.082       .  S
N270        N271   1.322       .  A
N270        C274   1.336       .  A
N271        C272   1.349       .  A
C272        C273   1.389       .  A
C272        H275   1.081       .  S
C273       C1158   1.476       .  S
C273        C274   1.378       .  A
C274        H276   1.082       .  S
O277       Cu285   1.949       .  S
O277        C287   1.254       .  A
O278       Cu285   1.892       .  S
O278        C288   1.252       .  A
O279       Cu285   2.007       .  S
O279        C289   1.272       .  A
O280       Cu285   1.936       .  S
O280        C290   1.262       .  A
O281       Cu286   2.621   1_556  S
O281        C290   1.283       .  A
O282       Cu286   2.471   1_556  S
O282        C289   1.322       .  A
O283       Cu286   2.413   1_556  S
O283        C288   1.286       .  A
O284       Cu286   2.734   1_556  S
O284        C287   1.310       .  A
Cu285      Cu286   3.410   1_556  S
C287       C1168   1.499       .  S
C288       C1161   1.477       .  S
C289       C1148   1.483       .  S
C290       C1138   1.466       .  S
N291        N292   1.325       .  A
N291        C295   1.350       .  A
N291       Cu299   2.098       .  S
N292        C293   1.342       .  A
N292       Cu298   2.068       .  S
C293        C294   1.379       .  A
C293        H296   1.082       .  S
C294       C1288   1.477       .  S
C294        C295   1.387       .  A
C295        H297   1.082       .  S
Cu298       N301   2.067       .  S
Cu299       N309   2.097       .  S
Cu300       N302   2.068       .  S
Cu300       N308   2.068       .  S
N301        N302   1.319       .  A
N301        C305   1.345       .  A
N302        C303   1.345       .  A
C303        C304   1.384       .  A
C303        H306   1.082       .  S
C304        C765   1.471       .  S
C304        C305   1.384       .  A
C305        H307   1.082       .  S
N308        N309   1.322       .  A
N308        C312   1.338       .  A
N309        C310   1.353       .  A
C310        C311   1.393       .  A
C310        H313   1.081       .  S
C311       C1128   1.489       .  S
C311        C312   1.383       .  A
C312        H314   1.082       .  S
N315        N316   1.321       .  A
N315        C319   1.351       .  A
N315       Cu323   2.111       .  S
N316        C317   1.340       .  A
N316       Cu322   2.049       .  S
C317        C318   1.380       .  A
C317        H320   1.082       .  S
C318       C1151   1.493       .  S
C318        C319   1.398       .  A
C319        H321   1.080       .  S
Cu322       N325   2.050       .  S
Cu323       N333   2.112       .  S
Cu324       N326   2.067       .  S
Cu324       N332   2.068       .  S
N325        N326   1.319       .  A
N325        C329   1.342       .  A
N326        C327   1.345       .  A
C327        C328   1.384       .  A
C327        H330   1.082       .  S
C328        C909   1.465       .  S
C328        C329   1.380       .  A
C329        H331   1.082       .  S
N332        N333   1.324       .  A
N332        C336   1.342       .  A
N333        C334   1.354       .  A
C334        C335   1.392       .  A
C334        H337   1.082       .  S
C335       C1118   1.486       .  S
C335        C336   1.380       .  A
C336        H338   1.082       .  S
N339        N340   1.323       .  A
N339        C343   1.350       .  A
N339       Cu347   2.088       .  S
N340        C341   1.340       .  A
N340       Cu346   2.066       .  S
C341        C342   1.380       .  A
C341        H344   1.082       .  S
C342       C1111   1.478       .  S
C342        C343   1.388       .  A
C343        H345   1.082       .  S
Cu346       N349   2.065       .  S
Cu347       N357   2.088       .  S
Cu348       N350   2.061       .  S
Cu348       N356   2.063       .  S
N349        N350   1.320       .  A
N349        C353   1.344       .  A
N350        C351   1.343       .  A
C351        C352   1.381       .  A
C351        H354   1.082       .  S
C352        C789   1.466       .  S
C352        C353   1.383       .  A
C353        H355   1.082       .  S
N356        N357   1.323       .  A
N356        C360   1.341       .  A
N357        C358   1.349       .  A
C358        C359   1.385       .  A
C358        H361   1.082       .  S
C359       C1361   1.468       .  S
C359        C360   1.377       .  A
C360        H362   1.082       .  S
O363       Cu371   1.894   1_554  S
O363        C373   1.251       .  A
O364       Cu371   1.965   1_565  S
O364        C374   1.254       .  A
O365       Cu371   1.943       .  S
O365        C375   1.264       .  A
O366       Cu371   2.007   1_564  S
O366        C376   1.270       .  A
O367       Cu372   2.422       .  S
O367        C376   1.331       .  A
O368       Cu372   2.717   1_546  S
O368        C375   1.289       .  A
O369       Cu372   2.594       .  S
O369        C374   1.312   1_554  A
O370       Cu372   2.462   1_545  S
O370        C373   1.283       .  A
Cu371      Cu372   3.444   1_546  S
C373       C1131   1.485       .  S
C374       C1121   1.485       .  S
C375       C1101   1.485       .  S
C376       C1108   1.479       .  S
N377        N378   1.322       .  A
N377        C381   1.346       .  A
N377       Cu385   2.078       .  S
N378        C379   1.342       .  A
N378       Cu384   2.068       .  S
C379        C380   1.384       .  A
C379        H382   1.082       .  S
C380       C1091   1.483       .  S
C380        C381   1.387       .  A
C381        H383   1.081       .  S
Cu384       N387   2.066       .  S
Cu385       N395   2.077       .  S
Cu386       N388   2.065       .  S
Cu386       N394   2.066       .  S
N387        N388   1.321       .  A
N387        C391   1.344       .  A
N388        C389   1.344       .  A
C389        C390   1.382       .  A
C389        H392   1.082       .  S
C390        C796   1.465       .  S
C390        C391   1.382       .  A
C391        H393   1.082       .  S
N394        N395   1.322       .  A
N394        C398   1.341       .  A
N395        C396   1.348       .  A
C396        C397   1.384       .  A
C396        H399   1.082       .  S
C397       C1268   1.472       .  S
C397        C398   1.380       .  A
C398        H400   1.082       .  S
N401        N402   1.324       .  A
N401        C405   1.344       .  A
N401       Cu409   2.067       .  S
N402        C403   1.344       .  A
N402       Cu408   2.076       .  S
C403        C404   1.381       .  A
C403        H406   1.082       .  S
C404       C1141   1.467       .  S
C404        C405   1.379       .  A
C405        H407   1.082       .  S
Cu408       N411   2.074       .  S
Cu409       N419   2.068       .  S
Cu410       N412   2.070       .  S
Cu410       N418   2.071       .  S
N411        N412   1.322       .  A
N411        C415   1.345       .  A
N412        C413   1.345       .  A
C413        C414   1.382       .  A
C413        H416   1.082       .  S
C414        C844   1.469       .  S
C414        C415   1.383       .  A
C415        H417   1.082       .  S
N418        N419   1.321       .  A
N418        C422   1.341       .  A
N419        C420   1.347       .  A
C420        C421   1.383       .  A
C420        H423   1.082       .  S
C421       C1081   1.469       .  S
C421        C422   1.382       .  A
C422        H424   1.082       .  S
N425        N426   1.323       .  A
N425        C429   1.352       .  A
N425       Cu433   2.111       .  S
N426        C427   1.339       .  A
N426       Cu432   2.054       .  S
C427        C428   1.378       .  A
C427        H430   1.082       .  S
C428       C1068   1.487       .  S
C428        C429   1.395       .  A
C429        H431   1.081       .  S
Cu432       N435   2.053       .  S
Cu433       N443   2.110       .  S
Cu434       N436   2.068       .  S
Cu434       N442   2.070       .  S
N435        N436   1.318       .  A
N435        C439   1.342       .  A
N436        C437   1.346       .  A
C437        C438   1.385       .  A
C437        H440   1.082       .  S
C438        C830   1.467       .  S
C438        C439   1.381       .  A
C439        H441   1.082       .  S
N442        N443   1.323       .  A
N442        C446   1.337       .  A
N443        C444   1.356       .  A
C444        C445   1.395       .  A
C444        H447   1.082       .  S
C445       C1371   1.494       .  S
C445        C446   1.382       .  A
C446        H448   1.080       .  S
O449       Cu457   1.951       .  S
O449        C459   1.264       .  A
O450       Cu457   2.009   1_566  S
O450        C460   1.270       .  A
O451       Cu457   1.937   1_565  S
O451        C461   1.253       .  A
O452       Cu457   1.876   1_556  S
O452        C462   1.248       .  A
O453       Cu458   2.458   1_545  S
O453        C462   1.287       .  A
O454       Cu458   2.590       .  S
O454        C461   1.314   1_556  A
O455       Cu458   2.427       .  S
O455        C460   1.331       .  A
O456       Cu458   2.704   1_544  S
O456        C459   1.281       .  A
Cu457      Cu458   3.443   1_544  S
C459       C1061   1.466       .  S
C460       C1071   1.482       .  S
C461       C1088   1.490       .  S
C462       C1078   1.489       .  S
N463        N464   1.324       .  A
N463        C467   1.352       .  A
N463       Cu471   2.100       .  S
N464        C465   1.339       .  A
N464       Cu470   2.058       .  S
C465        C466   1.375       .  A
C465        H468   1.082       .  S
C466       C1351   1.472       .  S
C466        C467   1.388       .  A
C467        H469   1.082       .  S
Cu470       N473   2.057       .  S
Cu471       N481   2.099       .  S
Cu472       N474   2.065       .  S
Cu472       N480   2.068       .  S
N473        N474   1.319       .  A
N473        C477   1.343       .  A
N474        C475   1.345       .  A
C475        C476   1.383       .  A
C475        H478   1.082       .  S
C476        C902   1.466       .  S
C476        C477   1.381       .  A
C477        H479   1.082       .  S
N480        N481   1.323       .  A
N480        C484   1.339       .  A
N481        C482   1.352       .  A
C482        C483   1.391       .  A
C482        H485   1.082       .  S
C483       C1048   1.488       .  S
C483        C484   1.383       .  A
C484        H486   1.081       .  S
N487        N488   1.324       .  A
N487        C491   1.348       .  A
N487       Cu495   2.081       .  S
N488        C489   1.342       .  A
N488       Cu494   2.069       .  S
C489        C490   1.378       .  A
C489        H492   1.082       .  S
C490       C1298   1.469       .  S
C490        C491   1.383       .  A
C491        H493   1.082   1_655  S
Cu494       N497   2.068       .  S
Cu495       N505   2.080       .  S
Cu496       N498   2.070       .  S
Cu496       N504   2.070       .  S
N497        N498   1.320       .  A
N497        C501   1.345       .  A
N498        C499   1.345       .  A
C499        C500   1.383       .  A
C499        H502   1.082       .  S
C500        C878   1.470       .  S
C500        C501   1.383       .  A
C501        H503   1.082       .  S
N504        N505   1.324       .  A
N504        C508   1.342       .  A
N505        C506   1.348       .  A
C506        C507   1.383       .  A
C506        H509   1.082   1_655  S
C507       C1038   1.466       .  S
C507        C508   1.378       .  A
C508        H510   1.082       .  S
N511        N512   1.323       .  A
N511        C515   1.346       .  A
N511       Cu519   2.062       .  S
N512        C513   1.342       .  A
N512       Cu518   2.077       .  S
C513        C514   1.380       .  A
C513        H516   1.082       .  S
C514       C1378   1.464       .  S
C514        C515   1.378       .  A
C515        H517   1.082       .  S
Cu518       N521   2.076       .  S
Cu519       N529   2.062       .  S
Cu520       N522   2.056       .  S
Cu520       N528   2.057       .  S
N521        N522   1.321       .  A
N521        C525   1.347       .  A
N522        C523   1.341       .  A
C523        C524   1.378       .  A
C523        H526   1.082       .  S
C524        C837   1.465       .  S
C524        C525   1.384       .  A
C525        H527   1.082       .  S
N528        N529   1.321       .  A
N528        C532   1.342       .  A
N529        C530   1.342       .  A
C530        C531   1.381       .  A
C530        H533   1.082       .  S
C531       C1028   1.468       .  S
C531        C532   1.380       .  A
C532        H534   1.082       .  S
O535       Cu543   1.905       .  S
O535        C545   1.259       .  A
O536       Cu543   1.967   1_565  S
O536        C546   1.260   1_455  A
O537       Cu543   1.943   1_565  S
O537        C547   1.261       .  A
O538       Cu543   1.981       .  S
O538        C548   1.263       .  A
O539       Cu544   2.428       .  S
O539        C548   1.331       .  A
O540       Cu544   2.747   1_565  S
O540        C547   1.283       .  A
O541       Cu544   2.534       .  S
O541        C546   1.313   1_445  A
O542       Cu544   2.445       .  S
O542        C545   1.284       .  A
Cu543      Cu544   3.458       .  S
C545       C1018   1.495       .  S
C546       C1051   1.481       .  S
C547       C1031   1.461       .  S
C548       C1041   1.482       .  S
N549        N550   1.323       .  A
N549        C553   1.349       .  A
N549       Cu557   2.083       .  S
N550        C551   1.340       .  A
N550       Cu556   2.064       .  S
C551        C552   1.379       .  A
C551        H554   1.082       .  S
C552       C1098   1.471       .  S
C552        C553   1.385       .  A
C553        H555   1.082       .  S
Cu556       N559   2.062       .  S
Cu557       N567   2.083       .  S
Cu558       N560   2.077       .  S
Cu558       N566   2.080       .  S
N559        N560   1.320       .  A
N559        C563   1.344       .  A
N560        C561   1.347       .  A
C561        C562   1.385       .  A
C561        H564   1.082       .  S
C562        C885   1.470       .  S
C562        C563   1.381       .  A
C563        H565   1.082       .  S
N566        N567   1.322       .  A
N566        C570   1.340       .  A
N567        C568   1.349       .  A
C568        C569   1.391       .  A
C568        H571   1.079       .  S
C569       C1008   1.495       .  S
C569        C570   1.389       .  A
C570        H572   1.082       .  S
N573        N574   1.323       .  A
N573        C577   1.347       .  A
N573       Cu581   2.069       .  S
N574        C575   1.343       .  A
N574       Cu580   2.075       .  S
C575        C576   1.381       .  A
C575        H578   1.082       .  S
C576       C1001   1.468       .  S
C576        C577   1.381       .  A
C577        H579   1.082       .  S
Cu580       N583   2.075       .  S
Cu581       N591   2.070       .  S
Cu582       N584   2.087       .  S
Cu582       N590   2.088       .  S
N583        N584   1.322       .  A
N583        C587   1.346       .  A
N584        C585   1.348       .  A
C585        C586   1.386       .  A
C585        H588   1.082       .  S
C586        C926   1.475       .  S
C586        C587   1.383       .  A
C587        H589   1.082       .  S
N590        N591   1.324       .  A
N590        C594   1.346       .  A
N591        C592   1.346       .  A
C592        C593   1.379       .  A
C592        H595   1.082       .  S
C593       C1058   1.472       .  S
C593        C594   1.384       .  A
C594        H596   1.082       .  S
N597        N598   1.322       .  A
N597        C601   1.349       .  A
N597       Cu605   2.090       .  S
N598        C599   1.337       .  A
N598       Cu604   2.040       .  S
C599        C600   1.372       .  A
C599        H602   1.082       .  S
C600        C991   1.465       .  S
C600        C601   1.386       .  A
C601        H603   1.082       .  S
Cu604       N607   2.040       .  S
Cu605       N615   2.091       .  S
Cu606       N608   2.069       .  S
Cu606       N614   2.070       .  S
N607        N608   1.318       .  A
N607        C611   1.340       .  A
N608        C609   1.345       .  A
C609        C610   1.385       .  A
C609        H612   1.082       .  S
C610        C854   1.463       .  S
C610        C611   1.378       .  A
C611        H613   1.082       .  S
N614        N615   1.325       .  A
N614        C618   1.340       .  A
N615        C616   1.350       .  A
C616        C617   1.385       .  A
C616        H619   1.082       .  S
C617       C1021   1.471       .  S
C617        C618   1.377       .  A
C618        H620   1.082       .  S
O621       Cu629   2.508   1_545  S
O621        C631   1.309       .  A
O622       Cu629   2.471   1_545  S
O622        C632   1.283       .  A
O623       Cu629   2.776   1_545  S
O623        C633   1.287       .  A
O624       Cu629   2.457   1_545  S
O624        C634   1.336       .  A
O625       Cu630   1.976       .  S
O625        C634   1.267       .  A
O626       Cu630   1.946       .  S
O626        C633   1.263       .  A
O627       Cu630   1.893       .  S
O627        C632   1.254       .  A
O628       Cu630   1.959       .  S
O628        C631   1.257       .  A
Cu629      Cu630   3.417   1_565  S
C631       C1011   1.479       .  S
C632        C998   1.492       .  S
C633        C978   1.488       .  S
C634        C988   1.488       .  S
N635        N636   1.321       .  A
N635        C639   1.349       .  A
N635       Cu643   2.076       .  S
N636        C637   1.338       .  A
N636       Cu642   2.061       .  S
C637        C638   1.381       .  A
C637        H640   1.082       .  S
C638        C971   1.477       .  S
C638        C639   1.388       .  A
C639        H641   1.082       .  S
Cu642       N645   2.060       .  S
Cu643       N653   2.076       .  S
Cu644       N646   2.071       .  S
Cu644       N652   2.073       .  S
N645        N646   1.320       .  A
N645        C649   1.343       .  A
N646        C647   1.346       .  A
C647        C648   1.384       .  A
C647        H650   1.082       .  S
C648        C806   1.468       .  S
C648        C649   1.381       .  A
C649        H651   1.082       .  S
N652        N653   1.325       .  A
N652        C656   1.342       .  A
N653        C654   1.347       .  A
C654        C655   1.381       .  A
C654        H657   1.082       .  S
C655       C1341   1.470       .  S
C655        C656   1.380       .  A
C656        H658   1.082       .  S
N659        N660   1.322       .  A
N659        C663   1.350   1_655  A
N659       Cu667   2.099       .  S
N660        C661   1.339       .  A
N660       Cu666   2.052       .  S
C661        C662   1.379       .  A
C661        H664   1.082       .  S
C662        C958   1.485       .  S
C662        C663   1.393   1_655  A
C663        H665   1.081       .  S
Cu666       N669   2.053       .  S
Cu667       N677   2.100       .  S
Cu668       N670   2.064       .  S
Cu668       N676   2.065       .  S
N669        N670   1.319       .  A
N669        C673   1.343       .  A
N670        C671   1.344       .  A
C671        C672   1.383       .  A
C671        H674   1.082       .  S
C672        C782   1.464       .  S
C672        C673   1.380       .  A
C673        H675   1.082       .  S
N676        N677   1.324       .  A
N676        C680   1.342       .  A
N677        C678   1.350   1_655  A
C678        C679   1.388   1_455  A
C678        H681   1.082       .  S
C679       C1308   1.473   1_655  S
C679        C680   1.377       .  A
C680        H682   1.082       .  S
N683        N684   1.322       .  A
N683        C687   1.349       .  A
N683       Cu691   2.076       .  S
N684        C685   1.338       .  A
N684       Cu690   2.064       .  S
C685        C686   1.381       .  A
C685        H688   1.082       .  S
C686        C981   1.476       .  S
C686        C687   1.386       .  A
C687        H689   1.082       .  S
Cu690       N693   2.062       .  S
Cu691       N701   2.076       .  S
Cu692       N694   2.079       .  S
Cu692       N700   2.082       .  S
N693        N694   1.320       .  A
N693        C697   1.344       .  A
N694        C695   1.347       .  A
C695        C696   1.386       .  A
C695        H698   1.082       .  S
C696        C758   1.471       .  S
C696        C697   1.382       .  A
C697        H699   1.082       .  S
N700        N701   1.322       .  A
N700        C704   1.341       .  A
N701        C702   1.348       .  A
C702        C703   1.389       .  A
C702        H705   1.080       .  S
C703        C948   1.493       .  S
C703        C704   1.390       .  A
C704        H706   1.082       .  S
N707        N708   1.323       .  A
N707        C711   1.346       .  A
N707       Cu715   2.076       .  S
N708        C709   1.343       .  A
N708       Cu714   2.077       .  S
C709        C710   1.385       .  A
C709        H712   1.082       .  S
C710       C1391   1.483       .  S
C710        C711   1.386       .  A
C711        H713   1.081       .  S
Cu714       N717   2.076       .  S
Cu715       N725   2.075       .  S
Cu716       N718   2.068       .  S
Cu716       N724   2.069       .  S
N717        N718   1.321       .  A
N717        C721   1.345       .  A
N718        C719   1.345       .  A
C719        C720   1.383       .  A
C719        H722   1.082       .  S
C720        C916   1.472       .  S
C720        C721   1.385       .  A
C721        H723   1.082       .  S
N724        N725   1.322       .  A
N724        C728   1.339       .  A
N725        C726   1.349       .  A
C726        C727   1.385       .  A
C726        H729   1.082       .  S
C727        C941   1.475       .  S
C727        C728   1.382       .  A
C728        H730   1.082       .  S
O731       Cu739   2.450       .  S
O731        C741   1.283       .  A
O732       Cu739   2.544       .  S
O732        C742   1.315   1_465  A
O733       Cu739   2.449       .  S
O733        C743   1.333       .  A
O734       Cu739   2.729   1_545  S
O734        C744   1.283       .  A
O735       Cu740   1.931       .  S
O735        C744   1.259       .  A
O736       Cu740   1.986   1_565  S
O736        C743   1.265       .  A
O737       Cu740   1.959       .  S
O737        C742   1.259   1_455  A
O738       Cu740   1.887   1_565  S
O738        C741   1.252       .  A
Cu739      Cu740   3.442   1_565  S
C741        C968   1.477       .  S
C742        C951   1.478       .  S
C743        C961   1.474       .  S
C744        C938   1.487       .  S
N745        N746   1.322       .  A
N745        C749   1.346       .  A
N745       Cu753   2.077       .  S
N746        C747   1.343       .  A
N746       Cu752   2.065       .  S
C747        C748   1.379       .  A
C747        H750   1.082       .  S
C748        C749   1.383       .  A
C749        H751   1.082       .  S
Cu752       N755   2.066       .  S
Cu753       N763   2.078       .  S
Cu754       N756   2.080       .  S
Cu754       N762   2.080       .  S
N755        N756   1.322       .  A
N755        C759   1.345       .  A
N756        C757   1.346       .  A
C757        C758   1.384       .  A
C757        H760   1.082       .  S
C758        C759   1.381       .  A
C759        H761   1.082       .  S
N762        N763   1.323       .  A
N762        C766   1.346       .  A
N763        C764   1.346       .  A
C764        C765   1.383       .  A
C764        H767   1.082       .  S
C765        C766   1.383       .  A
C766        H768   1.082       .  S
N769        N770   1.321       .  A
N769        C773   1.343       .  A
N769       Cu777   2.064       .  S
N770        C771   1.343       .  A
N770       Cu776   2.062       .  S
C771        C772   1.381       .  A
C771        H774   1.082       .  S
C772        C773   1.380       .  A
C773        H775   1.082       .  S
Cu776       N779   2.062       .  S
Cu777       N787   2.064       .  S
Cu778       N780   2.071       .  S
Cu778       N786   2.071       .  S
N779        N780   1.322       .  A
N779        C783   1.343       .  A
N780        C781   1.344       .  A
C781        C782   1.382       .  A
C781        H784   1.082       .  S
C782        C783   1.380       .  A
C783        H785   1.082       .  S
N786        N787   1.322       .  A
N786        C790   1.344       .  A
N787        C788   1.344       .  A
C788        C789   1.381       .  A
C788        H791   1.082       .  S
C789        C790   1.382       .  A
C790        H792   1.082       .  S
N793        N794   1.322       .  A
N793        C797   1.344       .  A
N793       Cu801   2.067       .  S
N794        C795   1.344       .  A
N794       Cu800   2.067       .  S
C795        C796   1.381       .  A
C795        H798   1.082       .  S
C796        C797   1.381       .  A
C797        H799   1.082       .  S
Cu800       N803   2.068       .  S
Cu801       N811   2.067       .  S
Cu802       N804   2.074       .  S
Cu802       N810   2.074       .  S
N803        N804   1.322       .  A
N803        C807   1.344       .  A
N804        C805   1.345       .  A
C805        C806   1.383       .  A
C805        H808   1.082       .  S
C806        C807   1.381       .  A
C807        H809   1.082       .  S
N810        N811   1.322       .  A
N810        C814   1.345       .  A
N811        C812   1.343       .  A
C812        C813   1.380       .  A
C812        H815   1.082       .  S
C813        C814   1.382       .  A
C814        H816   1.082       .  S
N817        N818   1.322       .  A
N817        C821   1.344       .  A
N817       Cu825   2.064       .  S
N818        C819   1.344       .  A
N818       Cu824   2.071       .  S
C819        C820   1.382       .  A
C819        H822   1.082       .  S
C820        C821   1.380       .  A
C821        H823   1.082       .  S
Cu824       N827   2.071       .  S
Cu825       N835   2.064       .  S
Cu826       N828   2.072       .  S
Cu826       N834   2.072       .  S
N827        N828   1.322       .  A
N827        C831   1.343       .  A
N828        C829   1.346       .  A
C829        C830   1.382       .  A
C829        H832   1.082       .  S
C830        C831   1.381       .  A
C831        H833   1.082       .  S
N834        N835   1.322       .  A
N834        C838   1.343       .  A
N835        C836   1.345       .  A
C836        C837   1.380       .  A
C836        H839   1.082       .  S
C837        C838   1.381       .  A
C838        H840   1.082       .  S
N841        N842   1.322       .  A
N841        C845   1.344       .  A
N841       Cu849   2.069       .  S
N842        C843   1.345       .  A
N842       Cu848   2.075       .  S
C843        C844   1.383       .  A
C843        H846   1.082       .  S
C844        C845   1.381       .  A
C845        H847   1.082       .  S
Cu848       N851   2.074       .  S
Cu849       N859   2.068       .  S
Cu850       N852   2.054       .  S
Cu850       N858   2.054       .  S
N851        N852   1.322       .  A
N851        C855   1.343       .  A
N852        C853   1.343       .  A
C853        C854   1.378       .  A
C853        H856   1.082       .  S
C854        C855   1.383       .  A
C855        H857   1.082       .  S
N858        N859   1.321       .  A
N858        C862   1.341       .  A
N859        C860   1.344       .  A
C860        C861   1.382       .  A
C860        H863   1.082       .  S
C861        C862   1.379       .  A
C862        H864   1.082       .  S
N865        N866   1.323       .  A
N865        C869   1.347       .  A
N865       Cu873   2.076       .  S
N866        C867   1.346       .  A
N866       Cu872   2.082       .  S
C867        C868   1.385       .  A
C867        H870   1.082       .  S
C868        C869   1.383       .  A
C869        H871   1.082       .  S
Cu872       N875   2.081       .  S
Cu873       N883   2.076       .  S
Cu874       N876   2.071       .  S
Cu874       N882   2.072       .  S
N875        N876   1.323       .  A
N875        C879   1.347       .  A
N876        C877   1.344       .  A
C877        C878   1.381       .  A
C877        H880   1.082       .  S
C878        C879   1.384       .  A
C879        H881   1.082       .  S
N882        N883   1.322       .  A
N882        C886   1.346       .  A
N883        C884   1.345       .  A
C884        C885   1.383       .  A
C884        H887   1.082       .  S
C885        C886   1.382       .  A
C886        H888   1.082       .  S
N889        N890   1.323       .  A
N889        C893   1.344       .  A
N889       Cu897   2.070       .  S
N890        C891   1.346       .  A
N890       Cu896   2.075       .  S
C891        C892   1.382       .  A
C891        H894   1.082       .  S
C892        C893   1.381       .  A
C893        H895   1.082       .  S
Cu896       N899   2.075       .  S
Cu897       N907   2.069       .  S
Cu898       N900   2.063       .  S
Cu898       N906   2.062       .  S
N899        N900   1.322       .  A
N899        C903   1.346       .  A
N900        C901   1.343       .  A
C901        C902   1.380       .  A
C901        H904   1.082       .  S
C902        C903   1.382       .  A
C903        H905   1.082       .  S
N906        N907   1.322       .  A
N906        C910   1.344       .  A
N907        C908   1.343       .  A
C908        C909   1.382       .  A
C908        H911   1.082       .  S
C909        C910   1.380       .  A
C910        H912   1.082       .  S
N913        N914   1.323       .  A
N913        C917   1.344       .  A
N913       Cu921   2.069       .  S
N914        C915   1.347       .  A
N914       Cu920   2.085       .  S
C915        C916   1.385       .  A
C915        H918   1.082       .  S
C916        C917   1.381       .  A
C917        H919   1.082       .  S
Cu920       N923   2.085       .  S
Cu921       N931   2.069       .  S
Cu922       N924   2.084       .  S
Cu922       N930   2.084       .  S
N923        N924   1.324       .  A
N923        C927   1.347       .  A
N924        C925   1.347       .  A
C925        C926   1.384       .  A
C925        H928   1.082       .  S
C926        C927   1.384       .  A
C927        H929   1.082       .  S
N930        N931   1.322       .  A
N930        C934   1.346       .  A
N931        C932   1.346       .  A
C932        C933   1.382       .  A
C932        H935   1.082       .  S
C933        C934   1.386       .  A
C934        H936   1.082       .  S
C937        C938   1.408       .  A
C937        C942   1.403       .  A
C937        H944   1.081       .  S
C938        C939   1.421       .  A
C939        C940   1.391       .  A
C939       Br946   1.928       .  S
C940        C941   1.397       .  A
C940        H945   1.084       .  S
C941        C942   1.408       .  A
C942       Br943   1.916       .  S
C947        C948   1.403       .  A
C947        C952   1.390       .  A
C947        H954   1.082       .  S
C948        C949   1.420       .  A
C949        C950   1.408   1_545  A
C949       Br956   1.917   1_545  S
C950        C951   1.403   1_565  A
C950        H955   1.084       .  S
C951        C952   1.412       .  A
C952       Br953   1.924       .  S
C957        C958   1.407       .  A
C957        C962   1.398       .  A
C957        H964   1.083       .  S
C958        C959   1.411   1_655  A
C959        C960   1.402       .  A
C959       Br966   1.918       .  S
C960        C961   1.400       .  A
C960        H965   1.076       .  S
C961        C962   1.407   1_455  A
C962       Br963   1.921       .  S
C967        C968   1.406       .  A
C967        C972   1.405       .  A
C967        H974   1.083       .  S
C968        C969   1.416       .  A
C969        C970   1.388       .  A
C969       Br976   1.928       .  S
C970        C971   1.399       .  A
C970        H975   1.084       .  S
C971        C972   1.411       .  A
C972       Br973   1.916       .  S
C977        C978   1.408       .  A
C977        C982   1.403       .  A
C977        H984   1.081   1_545  S
C978        C979   1.422       .  A
C979        C980   1.390       .  A
C979       Br986   1.929       .  S
C980        C981   1.398       .  A
C980        H985   1.084       .  S
C981        C982   1.408       .  A
C982       Br983   1.917   1_545  S
C987        C988   1.409       .  A
C987        C992   1.394       .  A
C987        H994   1.083       .  S
C988        C989   1.414       .  A
C989        C990   1.398       .  A
C989       Br996   1.898   1_545  S
C990        C991   1.396       .  A
C990        H995   1.084       .  S
C991        C992   1.404       .  A
C992       Br993   1.920       .  S
C997        C998   1.412       .  A
C997       C1002   1.391       .  A
C997       H1004   1.083       .  S
C998        C999   1.414       .  A
C999       C1000   1.404       .  A
C999      Br1006   1.906   1_545  S
C1000      C1001   1.401       .  A
C1000      H1005   1.084       .  S
C1001      C1002   1.400       .  A
C1002     Br1003   1.921       .  S
C1007      C1008   1.405       .  A
C1007      C1012   1.391       .  A
C1007      H1014   1.082       .  S
C1008      C1009   1.421       .  A
C1009      C1010   1.408       .  A
C1009     Br1016   1.917       .  S
C1010      C1011   1.403       .  A
C1010      H1015   1.084       .  S
C1011      C1012   1.410       .  A
C1012     Br1013   1.924       .  S
C1017      C1018   1.412       .  A
C1017      C1022   1.390       .  A
C1017      H1024   1.083       .  S
C1018      C1019   1.418       .  A
C1019      C1020   1.406       .  A
C1019     Br1026   1.915       .  S
C1020      C1021   1.402       .  A
C1020      H1025   1.083       .  S
C1021      C1022   1.402       .  A
C1022     Br1023   1.922       .  S
C1027      C1028   1.401       .  A
C1027      C1032   1.395       .  A
C1027      H1034   1.084       .  S
C1028      C1029   1.409       .  A
C1029      C1030   1.396       .  A
C1029     Br1036   1.920       .  S
C1030      C1031   1.401       .  A
C1030      H1035   1.084       .  S
C1031      C1032   1.405       .  A
C1032     Br1033   1.912       .  S
C1037      C1038   1.397   1_455  A
C1037      C1042   1.396       .  A
C1037      H1044   1.084       .  S
C1038      C1039   1.404       .  A
C1039      C1040   1.398       .  A
C1039     Br1046   1.916       .  S
C1040      C1041   1.405   1_655  A
C1040      H1045   1.082       .  S
C1041      C1042   1.419       .  A
C1042     Br1043   1.924       .  S
C1047      C1048   1.409       .  A
C1047      C1052   1.408   1_565  A
C1047      H1054   1.083   1_565  S
C1048      C1049   1.414       .  A
C1049      C1050   1.393       .  A
C1049     Br1056   1.923       .  S
C1050      C1051   1.398       .  A
C1050      H1055   1.079       .  S
C1051      C1052   1.409   1_565  A
C1052     Br1053   1.911       .  S
C1057      C1058   1.402       .  A
C1057      C1062   1.399       .  A
C1057      H1064   1.083       .  S
C1058      C1059   1.408       .  A
C1059      C1060   1.399       .  A
C1059     Br1066   1.917       .  S
C1060      C1061   1.402       .  A
C1060      H1065   1.084       .  S
C1061      C1062   1.407       .  A
C1062     Br1063   1.920   1_545  S
C1067      C1068   1.409       .  A
C1067      C1072   1.400       .  A
C1067      H1074   1.083       .  S
C1068      C1069   1.410       .  A
C1069      C1070   1.401       .  A
C1069     Br1076   1.919       .  S
C1070      C1071   1.400       .  A
C1070      H1075   1.074       .  S
C1071      C1072   1.408       .  A
C1072     Br1073   1.919       .  S
C1077      C1078   1.409       .  A
C1077      C1082   1.405       .  A
C1077      H1084   1.083       .  S
C1078      C1079   1.428       .  A
C1079      C1080   1.390       .  A
C1079     Br1086   1.931       .  S
C1080      C1081   1.392       .  A
C1080      H1085   1.084       .  S
C1081      C1082   1.405       .  A
C1082     Br1083   1.914       .  S
C1087      C1088   1.404       .  A
C1087      C1092   1.405       .  A
C1087      H1094   1.078       .  S
C1088      C1089   1.421       .  A
C1089      C1090   1.395       .  A
C1089     Br1096   1.925       .  S
C1090      C1091   1.399       .  A
C1090      H1095   1.084       .  S
C1091      C1092   1.409       .  A
C1092     Br1093   1.912       .  S
C1097      C1098   1.397       .  A
C1097      C1102   1.393       .  A
C1097      H1104   1.084       .  S
C1098      C1099   1.406       .  A
C1099      C1100   1.402       .  A
C1099     Br1106   1.916       .  S
C1100      C1101   1.408       .  A
C1100      H1105   1.083       .  S
C1101      C1102   1.419       .  A
C1102     Br1103   1.926       .  S
C1107      C1108   1.406       .  A
C1107      C1112   1.400       .  A
C1107      H1114   1.084   1_565  S
C1108      C1109   1.407       .  A
C1109      C1110   1.397       .  A
C1109     Br1116   1.908       .  S
C1110      C1111   1.403       .  A
C1110      H1115   1.084       .  S
C1111      C1112   1.409       .  A
C1112     Br1113   1.918   1_565  S
C1117      C1118   1.401       .  A
C1117      C1122   1.396       .  A
C1117      H1124   1.084       .  S
C1118      C1119   1.412       .  A
C1119      C1120   1.410   1_556  A
C1119     Br1126   1.919   1_556  S
C1120      C1121   1.406   1_554  A
C1120      H1125   1.080       .  S
C1121      C1122   1.408       .  A
C1122     Br1123   1.908       .  S
C1127      C1128   1.402       .  A
C1127      C1132   1.390       .  A
C1127      H1134   1.083       .  S
C1128      C1129   1.415       .  A
C1129      C1130   1.410       .  A
C1129     Br1136   1.916       .  S
C1130      C1131   1.406       .  A
C1130      H1135   1.082       .  S
C1131      C1132   1.416       .  A
C1132     Br1133   1.928       .  S
C1137      C1138   1.400       .  A
C1137      C1142   1.396       .  A
C1137      H1144   1.081       .  S
C1138      C1139   1.408       .  A
C1139      C1140   1.398       .  A
C1139     Br1146   1.917       .  S
C1140      C1141   1.401       .  A
C1140      H1145   1.084       .  S
C1141      C1142   1.405       .  A
C1142     Br1143   1.917       .  S
C1147      C1148   1.401       .  A
C1147      C1152   1.402       .  A
C1147      H1154   1.073       .  S
C1148      C1149   1.407       .  A
C1149      C1150   1.402       .  A
C1149     Br1156   1.919       .  S
C1150      C1151   1.410       .  A
C1150      H1155   1.083       .  S
C1151      C1152   1.411       .  A
C1152     Br1153   1.914   1_556  S
C1157      C1158   1.403       .  A
C1157      C1162   1.392       .  A
C1157      H1164   1.083       .  S
C1158      C1159   1.409       .  A
C1159      C1160   1.399       .  A
C1159     Br1166   1.918   1_556  S
C1160      C1161   1.402       .  A
C1160      H1165   1.076   1_556  S
C1161      C1162   1.412       .  A
C1162     Br1163   1.924       .  S
C1167      C1168   1.407       .  A
C1167      C1172   1.410       .  A
C1167      H1174   1.081       .  S
C1168      C1169   1.425       .  A
C1169      C1170   1.395       .  A
C1169     Br1176   1.928       .  S
C1170      C1171   1.398       .  A
C1170      H1175   1.083       .  S
C1171      C1172   1.413       .  A
C1172     Br1173   1.911       .  S
C1177      C1178   1.402       .  A
C1177      C1182   1.388       .  A
C1177      H1184   1.083       .  S
C1178      C1179   1.417       .  A
C1179      C1180   1.408   1_556  A
C1179     Br1186   1.917   1_556  S
C1180      C1181   1.404   1_554  A
C1180      H1185   1.083       .  S
C1181      C1182   1.410       .  A
C1182     Br1183   1.922       .  S
C1187      C1188   1.401       .  A
C1187      C1192   1.398       .  A
C1187      H1194   1.083       .  S
C1188      C1189   1.410       .  A
C1189      C1190   1.399       .  A
C1189     Br1196   1.919       .  S
C1190      C1191   1.403       .  A
C1190      H1195   1.083       .  S
C1191      C1192   1.413       .  A
C1192     Br1193   1.922       .  S
C1197      C1198   1.400       .  A
C1197      C1202   1.400       .  A
C1197      H1204   1.084   1_455  S
C1198      C1199   1.402       .  A
C1199      C1200   1.391       .  A
C1199     Br1206   1.921       .  S
C1200      C1201   1.409       .  A
C1200      H1205   1.084       .  S
C1201      C1202   1.416       .  A
C1202     Br1203   1.914       .  S
C1207      C1208   1.414       .  A
C1207      C1212   1.391       .  A
C1207      H1214   1.083       .  S
C1208      C1209   1.413       .  A
C1209      C1210   1.407       .  A
C1209     Br1216   1.894       .  S
C1210      C1211   1.402       .  A
C1210      H1215   1.084       .  S
C1211      C1212   1.405       .  A
C1212     Br1213   1.924       .  S
C1217      C1218   1.396       .  A
C1217      C1222   1.390       .  A
C1217      H1224   1.084       .  S
C1218      C1219   1.409       .  A
C1219      C1220   1.407       .  A
C1219     Br1226   1.914       .  S
C1220      C1221   1.409       .  A
C1220      H1225   1.083       .  S
C1221      C1222   1.424       .  A
C1222     Br1223   1.930       .  S
C1227      C1228   1.405       .  A
C1227      C1232   1.409       .  A
C1227      H1234   1.081       .  S
C1228      C1229   1.411   1_455  A
C1229      C1230   1.386       .  A
C1229     Br1236   1.925       .  S
C1230      C1231   1.405   1_655  A
C1230      H1235   1.080       .  S
C1231      C1232   1.418       .  A
C1232     Br1233   1.915       .  S
C1237      C1238   1.405       .  A
C1237      C1242   1.396       .  A
C1237      H1244   1.084       .  S
C1238      C1239   1.409       .  A
C1239      C1240   1.404       .  A
C1239     Br1246   1.917       .  S
C1240      C1241   1.405       .  A
C1240      H1245   1.079       .  S
C1241      C1242   1.411       .  A
C1242     Br1243   1.922       .  S
C1247      C1248   1.405       .  A
C1247      C1252   1.393       .  A
C1247      H1254   1.084       .  S
C1248      C1249   1.411       .  A
C1249      C1250   1.412       .  A
C1249     Br1256   1.915   1_554  S
C1250      C1251   1.414       .  A
C1250      H1255   1.082       .  S
C1251      C1252   1.416       .  A
C1252     Br1253   1.923       .  S
C1257      C1258   1.397       .  A
C1257      C1262   1.396       .  A
C1257      H1264   1.084       .  S
C1258      C1259   1.404       .  A
C1259      C1260   1.402       .  A
C1259     Br1266   1.915   1_554  S
C1260      C1261   1.409       .  A
C1260      H1265   1.082   1_554  S
C1261      C1262   1.422       .  A
C1262     Br1263   1.927       .  S
C1267      C1268   1.397       .  A
C1267      C1272   1.392       .  A
C1267      H1274   1.084       .  S
C1268      C1269   1.408       .  A
C1269      C1270   1.405       .  A
C1269     Br1276   1.918       .  S
C1270      C1271   1.406       .  A
C1270      H1275   1.084       .  S
C1271      C1272   1.405       .  A
C1272     Br1273   1.898       .  S
C1277      C1278   1.403       .  A
C1277      C1282   1.401       .  A
C1277      H1284   1.084       .  S
C1278      C1279   1.406       .  A
C1279      C1280   1.400       .  A
C1279     Br1286   1.907       .  S
C1280      C1281   1.403       .  A
C1280      H1285   1.083       .  S
C1281      C1282   1.414       .  A
C1282     Br1283   1.921       .  S
C1287      C1288   1.399       .  A
C1287      C1292   1.398       .  A
C1287      H1294   1.084       .  S
C1288      C1289   1.412       .  A
C1289      C1290   1.402       .  A
C1289     Br1296   1.917       .  S
C1290      C1291   1.399       .  A
C1290      H1295   1.081       .  S
C1291      C1292   1.418       .  A
C1292     Br1293   1.925       .  S
C1297      C1298   1.402       .  A
C1297      C1302   1.402       .  A
C1297      H1304   1.083       .  S
C1298      C1299   1.404   1_655  A
C1299      C1300   1.398       .  A
C1299     Br1306   1.919       .  S
C1300      C1301   1.401       .  A
C1300      H1305   1.081       .  S
C1301      C1302   1.408   1_455  A
C1302     Br1303   1.918       .  S
C1307      C1308   1.394   1_655  A
C1307      C1312   1.395       .  A
C1307      H1314   1.084       .  S
C1308      C1309   1.406       .  A
C1309      C1310   1.404       .  A
C1309     Br1316   1.914       .  S
C1310      C1311   1.408       .  A
C1310      H1315   1.083       .  S
C1311      C1312   1.428   1_455  A
C1312     Br1313   1.931       .  S
C1317      C1318   1.401   1_455  A
C1317      C1322   1.398       .  A
C1317      H1324   1.084       .  S
C1318      C1319   1.405       .  A
C1319      C1320   1.399       .  A
C1319     Br1326   1.918       .  S
C1320      C1321   1.408   1_655  A
C1320      H1325   1.084       .  S
C1321      C1322   1.411       .  A
C1322     Br1323   1.910       .  S
C1327      C1328   1.398       .  A
C1327      C1332   1.398       .  A
C1327      H1334   1.084       .  S
C1328      C1329   1.401   1_455  A
C1329      C1330   1.393       .  A
C1329     Br1336   1.919       .  S
C1330      C1331   1.407   1_655  A
C1330      H1335   1.084       .  S
C1331      C1332   1.414       .  A
C1332     Br1333   1.910       .  S
C1337      C1338   1.409       .  A
C1337      C1342   1.392       .  A
C1337      H1344   1.083       .  S
C1338      C1339   1.419       .  A
C1339      C1340   1.402       .  A
C1339     Br1346   1.915   1_565  S
C1340      C1341   1.400       .  A
C1340      H1345   1.084       .  S
C1341      C1342   1.404       .  A
C1342     Br1343   1.921       .  S
C1347      C1348   1.408       .  A
C1347      C1352   1.402       .  A
C1347      H1354   1.081       .  S
C1348      C1349   1.419       .  A
C1349      C1350   1.397       .  A
C1349     Br1356   1.923       .  S
C1350      C1351   1.399       .  A
C1350      H1355   1.084       .  S
C1351      C1352   1.404       .  A
C1352     Br1353   1.917   1_565  S
C1357      C1358   1.406       .  A
C1357      C1362   1.403       .  A
C1357      H1364   1.084       .  S
C1358      C1359   1.424       .  A
C1359      C1360   1.394       .  A
C1359     Br1366   1.928       .  S
C1360      C1361   1.394       .  A
C1360      H1365   1.084       .  S
C1361      C1362   1.405       .  A
C1362     Br1363   1.915   1_565  S
C1367      C1368   1.399       .  A
C1367      C1372   1.390       .  A
C1367      H1374   1.081       .  S
C1368      C1369   1.412       .  A
C1369      C1370   1.415       .  A
C1369     Br1376   1.916       .  S
C1370      C1371   1.412       .  A
C1370      H1375   1.083       .  S
C1371      C1372   1.413       .  A
C1372     Br1373   1.926       .  S
C1377      C1378   1.402       .  A
C1377      C1382   1.404       .  A
C1377      H1384   1.083       .  S
C1378      C1379   1.399       .  A
C1379      C1380   1.387       .  A
C1379     Br1386   1.921       .  S
C1380      C1381   1.411       .  A
C1380      H1385   1.083       .  S
C1381      C1382   1.415       .  A
C1382     Br1383   1.913       .  S
C1387      C1388   1.403       .  A
C1387      C1392   1.401       .  A
C1387      H1394   1.071       .  S
C1388      C1389   1.420       .  A
C1389      C1390   1.398       .  A
C1389     Br1396   1.924       .  S
C1390      C1391   1.402       .  A
C1390      H1395   1.083       .  S
C1391      C1392   1.409       .  A
C1392     Br1393   1.920       .  S
C1397      C1398   1.399       .  A
C1397      C1402   1.394       .  A
C1397      H1404   1.084       .  S
C1398      C1399   1.407       .  A
C1399      C1400   1.404       .  A
C1399     Br1406   1.914       .  S
C1400      C1401   1.407       .  A
C1400      H1405   1.083       .  S
C1401      C1402   1.417       .  A
C1402     Br1403   1.925       .  S
C1407      C1408   1.401       .  A
C1407      C1412   1.398       .  A
C1407      H1414   1.075       .  S
C1408      C1409   1.404       .  A
C1409      C1410   1.404       .  A
C1409     Br1416   1.912       .  S
C1410      C1411   1.411       .  A
C1410      H1415   1.083       .  S
C1411      C1412   1.410       .  A
C1412     Br1413   1.920       .  S
