geometry optimzed in LAMMPS
_audit_creation_date              2020-11-30 
_audit_creation_method            'lammps2cif' 
_symmetry_space_group_name_H-M    'P1' 
_symmetry_Int_Tables_number       1 
_symmetry_cell_setting            triclinic 
loop_ 
_symmetry_equiv_pos_as_xyz 
  x,y,z 
_cell_length_a                    46.39398932839265 
_cell_length_b                    49.34101470513817 
_cell_length_c                    25.187186404928017 
_cell_angle_alpha                 87.05319803748519 
_cell_angle_beta                  90.99068510673969 
_cell_angle_gamma                 119.0540157361714 
loop_ 
_atom_site_label 
_atom_site_type_symbol 
_atom_site_fract_x 
_atom_site_fract_y 
_atom_site_fract_z 
_atom_site_charge 
O1          O  0.02904043  0.06546917  0.03608348    -0.81330
O2          O  0.44007718  0.45513532  0.02259606    -0.81350
O3          O  0.46896698  0.04287631  0.90474183    -0.81360
O4          O  0.97915067  0.49466795  0.09168923    -0.81300
O5          O  0.44121034  0.49288723  0.93026467    -0.81420
O6          O  0.03085891  0.02239972  0.10742963    -0.81340
O7          O  0.45661102  0.43250388  0.08339245    -0.81330
O8          O  0.47870327  0.03862622  0.00957573    -0.81360
C9          C  0.00098408  0.06349745  0.02723785     1.08360
C10         C  0.43458958  0.43033259  0.04980794     1.08250
C11         C  0.44170538  0.01780593  0.91060221     1.08390
C12         C  0.00140361  0.50807458  0.12469181     1.08260
O13         O  0.06668300  0.00808056  0.03192830    -0.81330
O14         O  0.48160979  0.47249646  0.87815725    -0.81400
O15         O  0.03645048  0.07105533  0.93863193    -0.81340
O16         O  0.00591444  0.44436716  0.01352430    -0.81320
O17         O  0.46696358  0.42738688  0.95754587    -0.81370
O18         O  0.06368195  0.04758972  0.95940589    -0.81340
O19         O  0.03174942  0.47342701  0.08992352    -0.81300
O20         O  0.51163791  0.02267139  0.87890433    -0.81370
Co21       Co  0.04571078  0.03406629  0.03092756     1.51530
Co22       Co  0.46282057  0.46615565  0.95104293     1.51690
Co23       Co  0.49442657  0.02833751  0.94540308     1.51570
Co24       Co  0.99118237  0.46981681  0.04802306     1.51470
O25         O  0.00807820  0.00097767  0.98799206    -1.43260
C26         C  0.06069872  0.48766104  0.06851485     1.08290
C27         C  0.50130468  0.99807489  0.85492644     1.08380
C28         C  0.06421392  0.07256655  0.94779526     1.08320
C29         C  0.48546093  0.42239155  0.98837047     1.08290
O30         O  0.00243380  0.00660304  0.37221386    -0.81330
O31         O  0.46324877  0.04172018  0.55549473    -0.81350
O32         O  0.42602668  0.47269797  0.44016856    -0.81360
O33         O  0.06649864  0.05223998  0.51008575    -0.81300
O34         O  0.45654458  0.02215484  0.45506659    -0.81420
O35         O  0.04978332  0.05078984  0.42859890    -0.81340
O36         O  0.01240219  0.05740647  0.51956710    -0.81330
O37         O  0.46536667  0.45755472  0.37946595    -0.81360
C38         C  0.98288596  0.98214203  0.35082802     1.08360
C39         C  0.98998599  0.06343154  0.53515164     1.08250
C40         C  0.43139325  0.50069119  0.43435215     1.08390
C41         C  0.07086415  0.06471931  0.46372575     1.08260
O42         O  0.06291736  0.00424240  0.47967656    -0.81330
O43         O  0.42563047  0.47665074  0.54224224    -0.81400
O44         O  0.48084811  0.43325409  0.47749787    -0.81340
O45         O  0.03643632  0.03819671  0.60588354    -0.81320
O46         O  0.48469331  0.50162345  0.59879854    -0.81370
O47         O  0.02026729  0.45933156  0.41851673    -0.81340
O48         O  0.03690990  0.99042465  0.55704366    -0.81300
O49         O  0.44530542  0.44602452  0.53489416    -0.81370
Co50       Co  0.03148288  0.00500907  0.42681305     1.51530
Co51       Co  0.47215428  0.51233142  0.52307600     1.51690
Co52       Co  0.45620879  0.45442488  0.45949732     1.51570
Co53       Co  0.02170830  0.02106822  0.53878363     1.51470
O54         O  0.99527924  0.99503758  0.47952093    -1.43260
C55         C  0.05942969  0.99241642  0.52680349     1.08290
C56         C  0.42236691  0.44972874  0.55088284     1.08380
C57         C  0.00452460  0.43583451  0.45095987     1.08320
C58         C  0.01027822  0.51707831  0.62794561     1.08290
O59         O  0.44798343  0.20111751  0.04276592    -0.81330
O60         O  0.02484173  0.32082425  0.04558542    -0.81350
O61         O  0.98635978  0.23956981  0.10309072    -0.81360
O62         O  0.45378423  0.28258096  0.92714224    -0.81300
O63         O  0.03434532  0.27860853  0.11564578    -0.81420
O64         O  0.43548322  0.23873432  0.97466292    -0.81340
O65         O  0.97619699  0.28533445  0.02882416    -0.81330
O66         O  0.47472413  0.18053482  0.08524795    -0.81360
C67         C  0.44768246  0.17718117  0.06494128     1.08360
C68         C  0.99467925  0.31263291  0.04077723     1.08250
C69         C  0.00712853  0.25752640  0.13449002     1.08390
C70         C  0.43101423  0.26090904  0.95518354     1.08260
O71         O  0.47120040  0.22582440  0.88871263    -0.81330
O72         O  0.07466233  0.27617763  0.03528175    -0.81400
O73         O  0.01898889  0.20214612  0.00182460    -0.81340
O74         O  0.02574356  0.32209342  0.94376512    -0.81320
O75         O  0.06388151  0.31110372  0.96907791    -0.81370
O76         O  0.47381394  0.18168179  0.95958521    -0.81340
O77         O  0.50520469  0.27462603  0.89164458    -0.81300
O78         O  0.04607039  0.23192374  0.08068660    -0.81370
Co79       Co  0.46316078  0.21686862  0.96818230     1.51530
Co80       Co  0.04610485  0.29354339  0.03903144     1.51690
Co81       Co  0.00142250  0.22132717  0.04893989     1.51570
Co82       Co  0.48906085  0.27700917  0.96006110     1.51470
O83         O  0.01113964  0.25563994  0.99592194    -1.43260
C84         C  0.49099487  0.25127583  0.86524149     1.08290
C85         C  0.07220357  0.25152223  0.05530776     1.08380
C86         C  0.49792663  0.17942092  0.97837235     1.08320
C87         C  0.05599903  0.32895124  0.94389291     1.08290
O88         O  0.44165979  0.18594592  0.48779329    -0.81330
O89         O  0.03235265  0.32272132  0.52832318    -0.81350
O90         O  0.98486121  0.25680557  0.61393730    -0.81360
O91         O  0.46441041  0.28213030  0.40064152    -0.81300
O92         O  0.03816877  0.28612470  0.61411360    -0.81420
O93         O  0.44266210  0.23594616  0.44238997    -0.81340
O94         O  0.48040135  0.29642836  0.50451079    -0.81330
O95         O  0.43835869  0.20736797  0.55961427    -0.81360
C96         C  0.42672657  0.18411098  0.53062472     1.08360
C97         C  0.00515896  0.32196232  0.51618526     1.08250
C98         C  0.01069303  0.27287244  0.63876575     1.08390
C99         C  0.43897369  0.25703746  0.41541909     1.08260
O100        O  0.46777836  0.20662080  0.38535757    -0.81330
O101        O  0.06471366  0.26222948  0.54019537    -0.81400
O102        O  0.98522439  0.18726784  0.54899311    -0.81340
O103        O  0.03070945  0.31386914  0.42768514    -0.81320
O104        O  0.06145649  0.29612163  0.46016397    -0.81370
O105        O  0.50688219  0.20207275  0.46858936    -0.81340
O106        O  0.50420151  0.25635758  0.39013011    -0.81300
O107        O  0.03171380  0.23121716  0.60382537    -0.81370
Co108      Co  0.47959249  0.22340779  0.45432737     1.51530
Co109      Co  0.04667613  0.28974413  0.53439491     1.51690
Co110      Co  0.98555246  0.22316572  0.57841968     1.51570
Co111      Co  0.49017376  0.27366778  0.45195580     1.51470
O112        O  0.00283297  0.25276585  0.51272456    -1.43260
C113        C  0.48842301  0.23227976  0.36239608     1.08290
C114        C  0.05726718  0.24040692  0.57412480     1.08380
C115        C  0.50000198  0.18406364  0.51055041     1.08320
C116        C  0.05924458  0.31688981  0.43298359     1.08290
O117        O  0.20538114  0.99525516  0.06180100    -0.81330
O118        O  0.24531936  0.44640866  0.04490907    -0.81350
O119        O  0.18661025  0.46455797  0.91689109    -0.81360
O120        O  0.26680955  0.00307432  0.10443182    -0.81300
O121        O  0.19354024  0.43688745  0.98216977    -0.81420
O122        O  0.25673365  0.04230551  0.11093818    -0.81340
O123        O  0.29712464  0.47717924  0.04671026    -0.81330
O124        O  0.18921730  0.50674074  0.98452892    -0.81360
C125        C  0.18373389  0.99742062  0.03361615     1.08360
C126        C  0.27349604  0.45045125  0.05617691     1.08250
C127        C  0.17614029  0.43962098  0.94543945     1.08390
C128        C  0.26090795  0.02089928  0.13303998     1.08260
O129        O  0.30108668  0.05924244  0.03244144    -0.81330
O130        O  0.23573813  0.45780055  0.89015602    -0.81400
O131        O  0.25330025  0.05241714  0.93415139    -0.81340
O132        O  0.31256153  0.02126990  0.96137592    -0.81320
O133        O  0.28916640  0.47102109  0.94922807    -0.81370
O134        O  0.23947312  0.05532013  0.01434532    -0.81340
O135        O  0.32835763  0.03619291  0.06565996    -0.81300
O136        O  0.25103424  0.50742044  0.87511212    -0.81370
Co137      Co  0.25199795  0.02431381  0.04489496     1.51530
Co138      Co  0.24095431  0.45484263  0.96900696     1.51690
Co139      Co  0.22209856  0.50788564  0.93056309     1.51570
Co140      Co  0.28868280  0.01269707  0.02924876     1.51470
O141        O  0.24763479  0.99698934  0.98531155    -1.43260
C142        C  0.32749049  0.06086215  0.05395795     1.08290
C143        C  0.24746172  0.48202987  0.85961740     1.08380
C144        C  0.24632799  0.06641131  0.96727095     1.08320
C145        C  0.31300241  0.49863769  0.94059632     1.08290
O146        O  0.20598266  0.01197977  0.57164733    -0.81330
O147        O  0.24792274  0.44319070  0.51940650    -0.81350
O148        O  0.18320648  0.46183020  0.41243542    -0.81360
O149        O  0.27083025  0.98811411  0.59999788    -0.81300
O150        O  0.19577243  0.43461783  0.46698268    -0.81420
O151        O  0.25516984  0.01972441  0.63199533    -0.81340
O152        O  0.30002194  0.47267646  0.52249735    -0.81330
O153        O  0.18478856  0.97881410  0.51206439    -0.81360
C154        C  0.18069640  0.99290925  0.54769710     1.08360
C155        C  0.27561784  0.44532941  0.52341789     1.08250
C156        C  0.17604761  0.43555950  0.43347361     1.08390
C157        C  0.26406820  0.99947867  0.63983610     1.08260
O158        O  0.29364856  0.05369287  0.55342795    -0.81330
O159        O  0.23806259  0.47514938  0.37737260    -0.81400
O160        O  0.22616032  0.04580691  0.47842967    -0.81340
O161        O  0.31350584  0.02638283  0.45603725    -0.81320
O162        O  0.29068977  0.47931787  0.42652013    -0.81370
O163        O  0.26526068  0.05634779  0.53800470    -0.81340
O164        O  0.32877212  0.03502067  0.56131518    -0.81300
O165        O  0.23858885  0.52036711  0.38606830    -0.81370
Co166      Co  0.24897720  0.01119953  0.55936326     1.51530
Co167      Co  0.24290419  0.45933389  0.45011960     1.51690
Co168      Co  0.21126054  0.50246227  0.44994725     1.51570
Co169      Co  0.28985190  0.00886867  0.52493076     1.51470
O170        O  0.24708583  0.99604480  0.48532840    -1.43260
C171        C  0.32354521  0.05807937  0.56233059     1.08290
C172        C  0.24247692  0.50149099  0.35821188     1.08380
C173        C  0.24682362  0.06449794  0.51113006     1.08320
C174        C  0.31505296  0.50676493  0.42708495     1.08290
O175        O  0.18523240  0.20375384  0.01388053    -0.81330
O176        O  0.27589028  0.31860036  0.07500048    -0.81350
O177        O  0.23665549  0.21778064  0.12618889    -0.81360
O178        O  0.22060042  0.27530760  0.01806349    -0.81300
O179        O  0.26905121  0.26799950  0.12452248    -0.81420
O180        O  0.19806821  0.25144741  0.94815035    -0.81340
O181        O  0.27314169  0.33068524  0.98986949    -0.81330
O182        O  0.20276891  0.17379053  0.04701581    -0.81360
C183        C  0.17919374  0.17731252  0.02894047     1.08360
C184        C  0.27655472  0.33803400  0.03862466     1.08250
C185        C  0.25195339  0.24289938  0.15034764     1.08390
C186        C  0.19523807  0.26192764  0.99089318     1.08260
O187        O  0.24307973  0.23891766  0.89041467    -0.81330
O188        O  0.31092304  0.27842918  0.06023561    -0.81400
O189        O  0.26379177  0.19211988  0.99652668    -0.81340
O190        O  0.30950189  0.30558404  0.95150250    -0.81320
O191        O  0.31561956  0.30468093  0.03538278    -0.81370
O192        O  0.22132325  0.18412396  0.94546590    -0.81340
O193        O  0.25217050  0.28608202  0.90486888    -0.81300
O194        O  0.29781480  0.22892006  0.07313407    -0.81370
Co195      Co  0.21443693  0.22085081  0.95255595     1.51530
Co196      Co  0.26655378  0.27789418  0.04897528     1.51690
Co197      Co  0.25045997  0.20672905  0.05743533     1.51570
Co198      Co  0.26434753  0.28752786  0.98442147     1.51470
O199        O  0.25432035  0.24220333  0.00173006    -1.43260
C200        C  0.25137288  0.26609682  0.87312208     1.08290
C201        C  0.31850660  0.25651324  0.06044783     1.08380
C202        C  0.24411632  0.17819036  0.95975602     1.08320
C203        C  0.32836042  0.31697410  0.98987402     1.08290
O204        O  0.22022657  0.18497561  0.43594731    -0.81330
O205        O  0.23576046  0.30434554  0.47107844    -0.81350
O206        O  0.19028871  0.22011352  0.58952686    -0.81360
O207        O  0.28229905  0.28048173  0.39795490    -0.81300
O208        O  0.19206207  0.25381838  0.52862968    -0.81420
O209        O  0.23063747  0.24368724  0.40845265    -0.81340
O210        O  0.28857999  0.32899841  0.45828469    -0.81330
O211        O  0.19512184  0.19548718  0.49886150    -0.81360
C212        C  0.19394093  0.17810095  0.46102876     1.08360
C213        C  0.26157643  0.32938099  0.46054068     1.08250
C214        C  0.17604763  0.23335925  0.56450993     1.08390
C215        C  0.25421805  0.26207628  0.37798725     1.08260
O216        O  0.28462085  0.23183344  0.42823906    -0.81330
O217        O  0.23573081  0.27328462  0.61845958    -0.81400
O218        O  0.22133504  0.18042984  0.58484072    -0.81340
O219        O  0.31689662  0.31061631  0.54285791    -0.81320
O220        O  0.28002928  0.32472721  0.56134416    -0.81370
O221        O  0.25969976  0.20221519  0.52283697    -0.81340
O222        O  0.31593664  0.26493095  0.48478911    -0.81300
O223        O  0.25802045  0.24262250  0.61918525    -0.81370
Co224      Co  0.24346677  0.22432867  0.46795880     1.51530
Co225      Co  0.23625946  0.28722739  0.54243863     1.51690
Co226      Co  0.23086990  0.22125606  0.55585293     1.51570
Co227      Co  0.29835501  0.29378186  0.47336250     1.51470
O228        O  0.25525293  0.26206454  0.51113978    -1.43260
C229        C  0.31302711  0.24804017  0.44724942     1.08290
C230        C  0.25047325  0.26055908  0.64333297     1.08380
C231        C  0.24245537  0.17885402  0.55494392     1.08320
C232        C  0.30966825  0.32961716  0.56291736     1.08290
C233        C  0.23771412  0.27830794  0.72703865    -0.10340
C234        C  0.25533885  0.26560924  0.70208638     0.05850
C235        C  0.27566067  0.25780297  0.73444584    -0.04110
C236        C  0.27623424  0.26087475  0.78985314    -0.08560
C237        C  0.25721222  0.27201270  0.81462240     0.04970
C238        C  0.23835264  0.28134552  0.78224050    -0.03590
Br239      Br  0.20973839  0.29466825  0.81189767    -0.03280
H240        H  0.22187758  0.28472107  0.70387165     0.08880
H241        H  0.29069080  0.25325545  0.81421668     0.06900
Br242      Br  0.30299255  0.24267079  0.70609314    -0.03710
C243        C  0.22150084  0.23508128  0.23739865    -0.10340
C244        C  0.25112725  0.24448811  0.20949882     0.05850
C245        C  0.28094007  0.26062398  0.23732547    -0.04110
C246        C  0.28105446  0.26679912  0.29086929    -0.08560
C247        C  0.25172946  0.25784936  0.31907500     0.04970
C248        C  0.22159073  0.24204272  0.29125895    -0.03590
Br249      Br  0.18006243  0.23181870  0.32277708    -0.03280
H250        H  0.19827402  0.22346840  0.21683152     0.08880
H251        H  0.30459105  0.27839793  0.31073906     0.06900
Br252      Br  0.32292311  0.27483158  0.20457166    -0.03710
C253        C  0.24682426  0.36019581  0.51792904    -0.10340
C254        C  0.26310767  0.35918701  0.47214290     0.05850
C255        C  0.28594735  0.38725608  0.44633171    -0.04110
C256        C  0.29307963  0.41572426  0.46716359    -0.08560
C257        C  0.27709032  0.41676184  0.51334350     0.04970
C258        C  0.25380045  0.38847888  0.53865465    -0.03590
Br259      Br  0.23143438  0.38742710  0.60282238    -0.03280
H260        H  0.22972875  0.33886268  0.53935917     0.08880
H261        H  0.30974726  0.43699740  0.44572527     0.06900
Br262      Br  0.30472639  0.38689101  0.37954821    -0.03710
C263        C  0.21658102  0.12176100  0.54883580    -0.10340
C264        C  0.24548129  0.14999442  0.55143885     0.05850
C265        C  0.27548556  0.15043568  0.53978019    -0.04110
C266        C  0.27601042  0.12288035  0.52721255    -0.08560
C267        C  0.24656695  0.09445302  0.52282465     0.04970
C268        C  0.21679539  0.09488896  0.53372000    -0.03590
Br269      Br  0.17436560  0.06034405  0.52913460    -0.03280
H270        H  0.19314301  0.12094880  0.55556175     0.08880
H271        H  0.29939719  0.12396799  0.51917638     0.06900
Br272      Br  0.31612228  0.18850338  0.54046617    -0.03710
C273        C  0.28512945  0.00347099  0.78282011    -0.10340
C274        C  0.25490955  0.48045917  0.80415956     0.05850
C275        C  0.23064832  0.45942704  0.77045253    -0.04110
C276        C  0.23580177  0.46360560  0.71554833    -0.08560
C277        C  0.26474826  0.98848471  0.69420663     0.04970
C278        C  0.29018854  0.00757786  0.72801029    -0.03590
Br279      Br  0.33074586  0.04154288  0.70089441    -0.03280
H280        H  0.30399563  0.01948158  0.80865888     0.08880
H281        H  0.21595715  0.44926860  0.68943332     0.06900
Br282      Br  0.18810994  0.42804250  0.79608634    -0.03710
C283        C  0.23494174  0.48193034  0.26870192    -0.10340
C284        C  0.24853296  0.50764909  0.30089312     0.05850
C285        C  0.26706294  0.03774283  0.27741598    -0.04110
C286        C  0.27105055  0.04153135  0.22230217    -0.08560
C287        C  0.25725765  0.01571567  0.19047387     0.04970
C288        C  0.23914814  0.48569116  0.21393796    -0.03590
Br289      Br  0.21736011  0.44915080  0.17345707    -0.03280
H290        H  0.22023583  0.45864190  0.28607890     0.08880
H291        H  0.28527472  0.06470673  0.20419722     0.06900
Br292      Br  0.28886410  0.07413517  0.31813742    -0.03710
C293        C  0.30753276  0.39511885  0.04654271    -0.10340
C294        C  0.27819711  0.36699021  0.05319985     0.05850
C295        C  0.24969055  0.36674729  0.07157680    -0.04110
C296        C  0.24993124  0.39462049  0.07844887    -0.08560
C297        C  0.27826581  0.42315358  0.06674325     0.04970
C298        C  0.30802295  0.42327799  0.05409923    -0.03590
Br299      Br  0.34966082  0.46048578  0.04375565    -0.03280
H300        H  0.32980207  0.39521303  0.03395195     0.08880
H301        H  0.22704268  0.39389297  0.08923593     0.06900
Br302      Br  0.20874933  0.32910467  0.08259838    -0.03710
C303        C  0.27355280  0.12166873  0.93794907    -0.10340
C304        C  0.24441132  0.09426707  0.95085397     0.05850
C305        C  0.21415511  0.09454738  0.95128970    -0.04110
C306        C  0.21411973  0.12271288  0.94652993    -0.08560
C307        C  0.24385372  0.15054632  0.94131169     0.04970
C308        C  0.27336215  0.14986726  0.93288731    -0.03590
Br309      Br  0.31382226  0.18694119  0.91652597    -0.03280
H310        H  0.29668569  0.12139565  0.93502208     0.08880
H311        H  0.19110326  0.12296091  0.95190764     0.06900
Br312      Br  0.17215035  0.05784355  0.95931126    -0.03710
C313        C  0.40759965  0.12792608  0.54054738    -0.10340
C314        C  0.40151655  0.15249533  0.55020457     0.05850
C315        C  0.37261951  0.14551520  0.57829373    -0.04110
C316        C  0.34698395  0.11446009  0.58319596    -0.08560
C317        C  0.35191091  0.08995609  0.56738333     0.04970
C318        C  0.38422842  0.09715346  0.55272709    -0.03590
Br319      Br  0.39930637  0.06708248  0.55041575    -0.03280
H320        H  0.43115049  0.13266476  0.52437023     0.08880
H321        H  0.32356679  0.10939732  0.60042662     0.06900
Br322      Br  0.36921360  0.17663342  0.61550928    -0.03710
C323        C  0.14897982  0.37862024  0.42903547    -0.10340
C324        C  0.14665874  0.40575960  0.41937675     0.05850
C325        C  0.11615702  0.40249232  0.40092134    -0.04110
C326        C  0.08798352  0.37296990  0.40181788    -0.08560
C327        C  0.08985867  0.34615326  0.41768654     0.04970
C328        C  0.12147688  0.34922980  0.42712737    -0.03590
Br329      Br  0.12979879  0.31489317  0.43949719    -0.03280
H330        H  0.17247345  0.38019242  0.43963454     0.08880
H331        H  0.06429921  0.37118315  0.39208125     0.06900
Br332      Br  0.11036785  0.43627756  0.37367631    -0.03710
C333        C  0.40191179  0.28027843  0.40575179    -0.10340
C334        C  0.40531185  0.25348619  0.40892106     0.05850
C335        C  0.37625437  0.22420067  0.41302646    -0.04110
C336        C  0.34540992  0.22254445  0.41980325    -0.08560
C337        C  0.34313299  0.24958022  0.42492499     0.04970
C338        C  0.37142658  0.27859967  0.41461888    -0.03590
Br339      Br  0.36996504  0.31689368  0.41335081    -0.03280
H340        H  0.42326446  0.30288858  0.39964779     0.08880
H341        H  0.32354209  0.20006328  0.42476908     0.06900
Br342      Br  0.37684306  0.18562967  0.41068160    -0.03710
C343        C  0.09490976  0.22324973  0.62328264    -0.10340
C344        C  0.08048186  0.22747880  0.57585477     0.05850
C345        C  0.09531180  0.22772292  0.52709950    -0.04110
C346        C  0.12560987  0.22901715  0.52645764    -0.08560
C347        C  0.14101222  0.22576674  0.57239487     0.04970
C348        C  0.12482478  0.22176929  0.62171100    -0.03590
Br349      Br  0.14500200  0.21921584  0.68735609    -0.03280
H350        H  0.08450814  0.22349253  0.66129263     0.08880
H351        H  0.13853411  0.23519668  0.48883055     0.06900
Br352      Br  0.07899101  0.23105153  0.45767175    -0.03710
C353        C  0.50180390  0.28436540  0.78311251    -0.10340
C354        C  0.49647126  0.25578734  0.80711815     0.05850
C355        C  0.99764013  0.23374689  0.77536126    -0.04110
C356        C  0.00373150  0.24049057  0.72066782    -0.08560
C357        C  0.00892066  0.26903369  0.69699887     0.04970
C358        C  0.50771547  0.29094848  0.72859910    -0.03590
Br359      Br  0.51199331  0.32921172  0.69870686    -0.03280
H360        H  0.50070154  0.30157334  0.80680336     0.08880
H361        H  0.00386670  0.22308842  0.69635887     0.06900
Br362      Br  0.99247469  0.19494434  0.80463168    -0.03710
C363        C  0.46673669  0.22298204  0.27048755    -0.10340
C364        C  0.49405496  0.23599791  0.30411706     0.05850
C365        C  0.02530265  0.25671222  0.28165743    -0.04110
C366        C  0.02863521  0.26411933  0.22692049    -0.08560
C367        C  0.00131056  0.25140377  0.19301269     0.04970
C368        C  0.46992419  0.23060847  0.21567813    -0.03590
Br369      Br  0.42981672  0.21299094  0.17552441    -0.03280
H370        H  0.44242075  0.20790598  0.28730737     0.08880
H371        H  0.05302839  0.27952715  0.21072686     0.06900
Br372      Br  0.06477433  0.27481921  0.32320961    -0.03710
C373        C  0.40969191  0.12382118  0.10291234    -0.10500
C374        C  0.41669816  0.14733364  0.06353974     0.05850
C375        C  0.39333645  0.14198241  0.02240767    -0.04110
C376        C  0.36406328  0.11417855  0.02194452    -0.08560
C377        C  0.35731819  0.09070100  0.06047344     0.04970
C378        C  0.38016440  0.09560818  0.10181286    -0.03590
Br379      Br  0.37171552  0.06544366  0.15917296    -0.03280
H380        H  0.42697860  0.12748715  0.13481406     0.08880
H381        H  0.34694940  0.11036425  0.98963103     0.06900
Br382      Br  0.39931050  0.16928529  0.96158970    -0.03710
C383        C  0.11423364  0.35752039  0.91733171    -0.10340
C384        C  0.08425920  0.35809544  0.92156756     0.05850
C385        C  0.08562545  0.38727122  0.92054527    -0.04110
C386        C  0.11606737  0.41426265  0.92576316    -0.08560
C387        C  0.14512746  0.41234273  0.93187006     0.04970
C388        C  0.14432824  0.38397784  0.92430896    -0.03590
Br389      Br  0.18328936  0.37948108  0.92562779    -0.03280
H390        H  0.11419848  0.33563854  0.91475794     0.08880
H391        H  0.11682260  0.43648145  0.92779911     0.06900
Br392      Br  0.04761908  0.39200547  0.91168905    -0.03710
C393        C  0.35124133  0.26375374  0.97817982    -0.10340
C394        C  0.34978765  0.26240374  0.03443056     0.05850
C395        C  0.37639590  0.26314524  0.06273532    -0.04110
C396        C  0.40237606  0.26317785  0.03556885    -0.08560
C397        C  0.40396019  0.26430028  0.97957558     0.04970
C398        C  0.37832988  0.26533966  0.95072544    -0.03590
Br399      Br  0.37797510  0.26592247  0.87456560    -0.03280
H400        H  0.33063722  0.26247252  0.95541644     0.08880
H401        H  0.42103207  0.26140167  0.05925222     0.06900
Br402      Br  0.37930052  0.26438687  0.13824360    -0.03710
C403        C  0.14112309  0.25768856  0.97142308    -0.10340
C404        C  0.16260879  0.25632918  0.00944128     0.05850
C405        C  0.15175159  0.24833729  0.06312597    -0.04110
C406        C  0.12040520  0.24342899  0.07804949    -0.08560
C407        C  0.09965887  0.24640514  0.04002797     0.04970
C408        C  0.11036459  0.25335368  0.98605319    -0.03590
Br409      Br  0.08422541  0.25796627  0.92947484    -0.03280
H410        H  0.14870669  0.26315680  0.93003052     0.08880
H411        H  0.11309075  0.23905632  0.11956786     0.06900
Br412      Br  0.17836789  0.24366911  0.11771727    -0.03710
C413        C  0.33300741  0.38704655  0.57474223    -0.10340
C414        C  0.33701654  0.36035075  0.57905289     0.05850
C415        C  0.36899294  0.36479062  0.58876333    -0.04110
C416        C  0.39606951  0.39469605  0.58508821    -0.08560
C417        C  0.39253058  0.42116426  0.57249516     0.04970
C418        C  0.36045117  0.41728256  0.57186374    -0.03590
Br419      Br  0.35333929  0.45236350  0.56462055    -0.03280
H420        H  0.30866794  0.38445263  0.57010538     0.08880
H421        H  0.42041543  0.39691647  0.58869437     0.06900
Br422      Br  0.37782216  0.33101214  0.60490643    -0.03710
C423        C  0.16115753  0.12194794  0.43895171    -0.10340
C424        C  0.16208486  0.15015097  0.44866397     0.05850
C425        C  0.13181621  0.15024999  0.45098739    -0.04110
C426        C  0.10192745  0.12242861  0.45528843    -0.08560
C427        C  0.10136305  0.09411106  0.45097197     0.04970
C428        C  0.13081695  0.09431190  0.43770431    -0.03590
Br429      Br  0.12975455  0.05784445  0.41347894    -0.03280
H430        H  0.18387213  0.12127704  0.43307462     0.08880
H431        H  0.07910806  0.12297027  0.46075415     0.06900
Br432      Br  0.12957625  0.18708827  0.43599139    -0.03710
C433        C  0.40604537  0.03571171  0.42157862    -0.10340
C434        C  0.40558928  0.50764560  0.41113164     0.05850
C435        C  0.37784496  0.48516923  0.38485849    -0.04110
C436        C  0.34879595  0.48736707  0.38222676    -0.08560
C437        C  0.34722258  0.51236812  0.40404176     0.04970
C438        C  0.37737040  0.03857194  0.41573695    -0.03590
Br439      Br  0.38060488  0.07864745  0.42007039    -0.03280
H440        H  0.42812592  0.05495088  0.43657899     0.08880
H441        H  0.32678532  0.46829419  0.36667129     0.06900
Br442      Br  0.37858032  0.45140046  0.35187224    -0.03710
C443        C  0.09884010  0.97774401  0.49998653    -0.10340
C444        C  0.08450285  0.98359230  0.54307254     0.05850
C445        C  0.10046473  0.98888820  0.59291119    -0.04110
C446        C  0.13167158  0.99035662  0.59676757    -0.08560
C447        C  0.14767400  0.98976104  0.55019559     0.04970
C448        C  0.13134288  0.98574455  0.50128085    -0.03590
Br449      Br  0.15415253  0.00219397  0.43436122    -0.03280
H450        H  0.08709488  0.97335938  0.46138346     0.08880
H451        H  0.14409942  0.99398817  0.63462546     0.06900
Br452      Br  0.08222407  0.49636687  0.65447439    -0.03710
C453        C  0.02832839  0.40794035  0.50440948    -0.10340
C454        C  0.01110164  0.40930260  0.45878504     0.05850
C455        C  0.49071454  0.38130099  0.43442284    -0.04110
C456        C  0.48803695  0.35322427  0.45546464    -0.08560
C457        C  0.00565823  0.35193443  0.50078540     0.04970
C458        C  0.02700260  0.38019778  0.52406085    -0.03590
Br459      Br  0.05381179  0.38258705  0.58432921    -0.03280
H460        H  0.04114134  0.42805693  0.52741020     0.08880
H461        H  0.47253553  0.33233027  0.43543680     0.06900
Br462      Br  0.46404630  0.38006067  0.37457429    -0.03710
C463        C  0.00725381  0.14175034  0.47192813    -0.10340
C464        C  0.50455379  0.15623490  0.51657268     0.05850
C465        C  0.49987373  0.14042090  0.56757573    -0.04110
C466        C  0.49441375  0.11012390  0.57178917    -0.08560
C467        C  0.49538448  0.09524904  0.52719263     0.04970
C468        C  0.00333644  0.11162944  0.47707777    -0.03590
Br469      Br  0.00703641  0.09334676  0.41399190    -0.03280
H470        H  0.01092995  0.15319877  0.43283164     0.08880
H471        H  0.48978883  0.09812761  0.61059723     0.06900
Br472      Br  0.49979900  0.15741447  0.63487395    -0.03710
C473        C  0.03417810  0.03229394  0.71738563    -0.10340
C474        C  0.51023213  0.50964982  0.68578937     0.05850
C475        C  0.48780961  0.48065814  0.71039001    -0.04110
C476        C  0.48725654  0.47627980  0.76573691    -0.08560
C477        C  0.50917380  0.00009607  0.79763152     0.04970
C478        C  0.03417500  0.02766226  0.77251131    -0.03590
Br479      Br  0.06924075  0.06007604  0.81038286    -0.03280
H480        H  0.05274794  0.05416329  0.69931961     0.08880
H481        H  0.46845901  0.45457430  0.78393670     0.06900
Br482      Br  0.45797060  0.44556857  0.67177478    -0.03710
C483        C  0.02106480  0.00452557  0.21493385    -0.10340
C484        C  0.99463673  0.00097226  0.18263403     0.05850
C485        C  0.46263160  0.48728710  0.20582055    -0.04110
C486        C  0.45820460  0.47876183  0.26050689    -0.08560
C487        C  0.98504658  0.98318364  0.29241665     0.04970
C488        C  0.01653227  0.99558538  0.26869165    -0.03590
Br489      Br  0.05484551  0.00130839  0.30806983    -0.03280
H490        H  0.04561768  0.01385009  0.19823169     0.08880
H491        H  0.43410456  0.46996221  0.27839830     0.06900
Br492      Br  0.42428073  0.48088660  0.16616978    -0.03710
C493        C  0.38093226  0.34383706  0.03481970    -0.10340
C494        C  0.36233489  0.34299587  0.98939747     0.05850
C495        C  0.36982525  0.37109111  0.96177126    -0.04110
C496        C  0.39318784  0.39915417  0.98245624    -0.08560
C497        C  0.40894596  0.39991897  0.03139095     0.04970
C498        C  0.40223753  0.37164108  0.05774985    -0.03590
Br499      Br  0.41632725  0.36864391  0.12902385    -0.03280
H500        H  0.37509922  0.32264877  0.05770649     0.08880
H501        H  0.39824846  0.42053236  0.96068367     0.06900
Br502      Br  0.34597261  0.37269708  0.89982938    -0.03710
C503        C  0.13296667  0.15510240  0.96478615    -0.10340
C504        C  0.14791390  0.15101908  0.01184681     0.05850
C505        C  0.13446376  0.12150587  0.03737425    -0.04110
C506        C  0.10729640  0.09678531  0.01535661    -0.08560
C507        C  0.09277352  0.10055568  0.96769998     0.04970
C508        C  0.10576318  0.13009594  0.94246869    -0.03590
Br509      Br  0.08892893  0.13668059  0.87585097    -0.03280
H510        H  0.14332457  0.17761820  0.94383002     0.08880
H511        H  0.09745201  0.07430086  0.03617134     0.06900
Br512      Br  0.15139932  0.11358966  0.10296597    -0.03710
C513        C  0.38197244  0.48530881  0.89527400    -0.10340
C514        C  0.40903162  0.51537796  0.89849581     0.05850
C515        C  0.40270461  0.04054338  0.89861837    -0.04110
C516        C  0.37037309  0.03476349  0.90758465    -0.08560
C517        C  0.34387822  0.50414106  0.91377065     0.04970
C518        C  0.34966112  0.47949552  0.90197580    -0.03590
Br519      Br  0.31564611  0.43693439  0.89847331    -0.03280
H520        H  0.38599630  0.46565232  0.89095963     0.08880
H521        H  0.36632917  0.05433345  0.91265779     0.06900
Br522      Br  0.43667908  0.08281860  0.88805371    -0.03710
C523        C  0.12433221  0.46317628  0.05097029    -0.10340
C524        C  0.15251653  0.99132064  0.05867016     0.05850
C525        C  0.14964960  0.01415691  0.08594408    -0.04110
C526        C  0.11825829  0.01006676  0.09788945    -0.08560
C527        C  0.08932232  0.98315092  0.08403014     0.04970
C528        C  0.09318871  0.45884377  0.06421076    -0.03590
Br529      Br  0.05771254  0.41970207  0.05025508    -0.03280
H530        H  0.12642975  0.44491951  0.03220355     0.08880
H531        H  0.11643659  0.02934840  0.11307593     0.06900
Br532      Br  0.18753208  0.05242617  0.10316570    -0.03710
C533        C  0.48258564  0.38250677  0.05635972    -0.10340
C534        C  0.48003732  0.39079399  0.00256083     0.05850
C535        C  0.97397281  0.36924536  0.96444812    -0.04110
C536        C  0.97787385  0.34353475  0.97838812    -0.08560
C537        C  0.98415039  0.33657707  0.03096621     0.04970
C538        C  0.48460541  0.35557780  0.07071444    -0.03590
Br539      Br  0.49113726  0.34722445  0.14376423    -0.03280
H540        H  0.48579927  0.39831111  0.08701903     0.08880
H541        H  0.97976273  0.33161517  0.94584503     0.06900
Br542      Br  0.96483374  0.37574819  0.89154294    -0.03710
C543        C  0.46863505  0.12162867  0.99999899    -0.10340
C544        C  0.49795185  0.14893299  0.98475576     0.05850
C545        C  0.02756089  0.14756740  0.98760901    -0.04110
C546        C  0.02785447  0.12045224  0.00606910    -0.08560
C547        C  0.99874923  0.09292081  0.02004071     0.04970
C548        C  0.46874976  0.09386324  0.01704092    -0.03590
Br549      Br  0.42751107  0.05848791  0.03803125    -0.03280
H550        H  0.44548884  0.12194969  0.99968581     0.08880
H551        H  0.05126411  0.12070576  0.00706052     0.06900
Br552      Br  0.06840310  0.18106357  0.96245720    -0.03710
O553        O  0.02902936  0.56546930  0.03609157    -0.81330
O554        O  0.44007927  0.95513919  0.02258146    -0.81350
O555        O  0.46895836  0.54286930  0.90474664    -0.81360
O556        O  0.97915966  0.99467305  0.09167577    -0.81300
O557        O  0.44121933  0.99289261  0.93024640    -0.81420
O558        O  0.03084897  0.52240305  0.10744255    -0.81340
O559        O  0.45661338  0.93250859  0.08338005    -0.81330
O560        O  0.47869309  0.53862404  0.00958200    -0.81360
C561        C  0.00097280  0.56349632  0.02724299     1.08360
C562        C  0.43459101  0.93033729  0.04979753     1.08250
C563        C  0.44169669  0.51779947  0.91061320     1.08390
C564        C  0.00141347  0.00807521  0.12467915     1.08260
O565        O  0.06667631  0.50808456  0.03194717    -0.81330
O566        O  0.48161687  0.97249771  0.87814580    -0.81400
O567        O  0.03644156  0.57105379  0.93864068    -0.81340
O568        O  0.00591224  0.94436687  0.01350636    -0.81320
O569        O  0.46695898  0.92738462  0.95753411    -0.81370
O570        O  0.06367427  0.54759021  0.95942006    -0.81340
O571        O  0.03175165  0.97342211  0.08989971    -0.81300
O572        O  0.51163467  0.52266926  0.87891792    -0.81370
Co573      Co  0.04570200  0.53406811  0.03094125     1.51530
Co574      Co  0.46282482  0.96615785  0.95102914     1.51690
Co575      Co  0.49441950  0.52833461  0.94541298     1.51570
Co576      Co  0.99118504  0.96981878  0.04800688     1.51470
O577        O  0.00807220  0.50097685  0.98800655    -1.43260
C578        C  0.06070063  0.98765227  0.06848916     1.08290
C579        C  0.50129919  0.49807316  0.85493862     1.08380
C580        C  0.06420535  0.57256629  0.94780614     1.08320
C581        C  0.48545597  0.92238962  0.98835935     1.08290
O582        O  0.00242862  0.50660217  0.37222600    -0.81330
O583        O  0.46324248  0.54171840  0.55550378    -0.81350
O584        O  0.42603139  0.97269993  0.44015764    -0.81360
O585        O  0.06649380  0.55223999  0.51009746    -0.81300
O586        O  0.45653969  0.52215306  0.45507594    -0.81420
O587        O  0.04977839  0.55078970  0.42861065    -0.81340
O588        O  0.01239665  0.55740499  0.51957840    -0.81330
O589        O  0.46537085  0.95755595  0.37945382    -0.81360
C590        C  0.98288075  0.48214107  0.35084029     1.08360
C591        C  0.98997985  0.56342973  0.53516107     1.08250
C592        C  0.43139800  0.00069320  0.43434265     1.08390
C593        C  0.07085920  0.56471948  0.46373748     1.08260
O594        O  0.06291331  0.50424267  0.47968788    -0.81330
O595        O  0.42563553  0.97665229  0.54223257    -0.81400
O596        O  0.48085148  0.93325477  0.47748579    -0.81340
O597        O  0.03643073  0.53819561  0.60589555    -0.81320
O598        O  0.48469892  0.00162424  0.59878773    -0.81370
O599        O  0.02027120  0.95933175  0.41850535    -0.81340
O600        O  0.03690588  0.49042432  0.55705510    -0.81300
O601        O  0.44531001  0.94602589  0.53488248    -0.81370
Co602      Co  0.03147837  0.50500879  0.42682461     1.51530
Co603      Co  0.47215951  0.01233270  0.52306583     1.51690
Co604      Co  0.45621296  0.95442623  0.45948548     1.51570
Co605      Co  0.02170351  0.52106732  0.53879526     1.51470
O606        O  0.99527470  0.49503653  0.47953264    -1.43260
C607        C  0.05942555  0.49241619  0.52681446     1.08290
C608        C  0.42237178  0.94973016  0.55087233     1.08380
C609        C  0.00452793  0.93583481  0.45094830     1.08320
C610        C  0.01028415  0.01707929  0.62793414     1.08290
O611        O  0.44797667  0.70111792  0.04276208    -0.81330
O612        O  0.02484149  0.82082450  0.04558735    -0.81350
O613        O  0.98635503  0.73956814  0.10308947    -0.81360
O614        O  0.45378390  0.78258454  0.92713730    -0.81300
O615        O  0.03434131  0.77860575  0.11564524    -0.81420
O616        O  0.43547976  0.73873803  0.97465914    -0.81340
O617        O  0.97619639  0.78533724  0.02882074    -0.81330
O618        O  0.47471657  0.68053330  0.08524146    -0.81360
C619        C  0.44767497  0.67718096  0.06493670     1.08360
C620        C  0.99467962  0.81263490  0.04077732     1.08250
C621        C  0.00712429  0.75752387  0.13448921     1.08390
C622        C  0.43101246  0.76091336  0.95517761     1.08260
O623        O  0.47119599  0.72582735  0.88870939    -0.81330
O624        O  0.07465756  0.77617435  0.03528052    -0.81400
O625        O  0.01898111  0.70214486  0.00181753    -0.81340
O626        O  0.02574508  0.82209577  0.94376490    -0.81320
O627        O  0.06387989  0.81110232  0.96907923    -0.81370
O628        O  0.47380537  0.68168177  0.95958023    -0.81340
O629        O  0.50520421  0.77462807  0.89164276    -0.81300
O630        O  0.04606389  0.73191939  0.08068139    -0.81370
Co631      Co  0.46315532  0.71687038  0.96817883     1.51530
Co632      Co  0.04610186  0.79354163  0.03903169     1.51690
Co633      Co  0.00141639  0.72132585  0.04893578     1.51570
Co634      Co  0.48905988  0.77701181  0.96005819     1.51470
O635        O  0.01113545  0.75563990  0.99592022    -1.43260
C636        C  0.49099263  0.75127832  0.86523906     1.08290
C637        C  0.07219764  0.75151811  0.05530403     1.08380
C638        C  0.49791774  0.67941992  0.97836600     1.08320
C639        C  0.05600004  0.82895170  0.94389450     1.08290
O640        O  0.44165801  0.68594635  0.48779445    -0.81330
O641        O  0.03235281  0.82272160  0.52832074    -0.81350
O642        O  0.98486107  0.75680793  0.61393537    -0.81360
O643        O  0.46440926  0.78213021  0.40064060    -0.81300
O644        O  0.03816876  0.78612568  0.61411196    -0.81420
O645        O  0.44266126  0.73594612  0.44238914    -0.81340
O646        O  0.48040133  0.79642887  0.50450959    -0.81330
O647        O  0.43835728  0.70736905  0.55961506    -0.81360
C648        C  0.42672483  0.68411186  0.53062572     1.08360
C649        C  0.00515924  0.82196283  0.51618290     1.08250
C650        C  0.01069295  0.77287442  0.63876389     1.08390
C651        C  0.43897261  0.75703721  0.41541805     1.08260
O652        O  0.46777691  0.70661974  0.38535848    -0.81330
O653        O  0.06471252  0.76222895  0.54019426    -0.81400
O654        O  0.98522212  0.68726851  0.54899545    -0.81340
O655        O  0.03070951  0.81386914  0.42768319    -0.81320
O656        O  0.06145529  0.79612039  0.46016223    -0.81370
O657        O  0.50687998  0.70207146  0.46859160    -0.81340
O658        O  0.50419983  0.75635678  0.39012915    -0.81300
O659        O  0.03171278  0.73121784  0.60382550    -0.81370
Co660      Co  0.47959126  0.72340738  0.45432772     1.51530
Co661      Co  0.04667564  0.78974405  0.53439324     1.51690
Co662      Co  0.98555133  0.72316698  0.57842001     1.51570
Co663      Co  0.49017307  0.77366794  0.45195462     1.51470
O664        O  0.00283205  0.75276603  0.51272380    -1.43260
C665        C  0.48842119  0.73227855  0.36239604     1.08290
C666        C  0.05726609  0.74040696  0.57412481     1.08380
C667        C  0.49999906  0.68406291  0.51055353     1.08320
C668        C  0.05924444  0.81688926  0.43298238     1.08290
O669        O  0.20537242  0.49525672  0.06179482    -0.81330
O670        O  0.24532749  0.94640891  0.04490969    -0.81350
O671        O  0.18661821  0.96455746  0.91689020    -0.81360
O672        O  0.26680062  0.50307459  0.10442949    -0.81300
O673        O  0.19354773  0.93688631  0.98216805    -0.81420
O674        O  0.25672472  0.54230597  0.11093407    -0.81340
O675        O  0.29713295  0.97718010  0.04671095    -0.81330
O676        O  0.18922380  0.00673587  0.98453360    -0.81360
C677        C  0.18372708  0.49742659  0.03361176     1.08360
C678        C  0.27350429  0.95045237  0.05617930     1.08250
C679        C  0.17614730  0.93962029  0.94543848     1.08390
C680        C  0.26089865  0.52089968  0.13303682     1.08260
O681        O  0.30107907  0.55924203  0.03243866    -0.81330
O682        O  0.23574776  0.95780241  0.89015691    -0.81400
O683        O  0.25329420  0.55241695  0.93414331    -0.81340
O684        O  0.31255405  0.52126814  0.96137473    -0.81320
O685        O  0.28917591  0.97102305  0.94922924    -0.81370
O686        O  0.23946902  0.55532279  0.01433703    -0.81340
O687        O  0.32834953  0.53619243  0.06565871    -0.81300
O688        O  0.25104302  0.00742234  0.87511461    -0.81370
Co689      Co  0.25198998  0.52431433  0.04489087     1.51530
Co690      Co  0.24096302  0.95484323  0.96900749     1.51690
Co691      Co  0.22210614  0.00788520  0.93056643     1.51570
Co692      Co  0.28867479  0.51269651  0.02924703     1.51470
O693        O  0.24762721  0.49698959  0.98530873    -1.43260
C694        C  0.32748268  0.56086174  0.05395563     1.08290
C695        C  0.24747093  0.98203200  0.85961893     1.08380
C696        C  0.24632409  0.56641290  0.96726197     1.08320
C697        C  0.31301086  0.99864023  0.94059651     1.08290
O698        O  0.20597927  0.51198069  0.57164765    -0.81330
O699        O  0.24792752  0.94319058  0.51940807    -0.81350
O700        O  0.18321051  0.96182862  0.41243644    -0.81360
O701        O  0.27082527  0.48811428  0.59999744    -0.81300
O702        O  0.19577631  0.93461592  0.46698350    -0.81420
O703        O  0.25516654  0.51972587  0.63199433    -0.81340
O704        O  0.30002668  0.97267656  0.52249715    -0.81330
O705        O  0.18478442  0.47881516  0.51206442    -0.81360
C706        C  0.18069270  0.49291001  0.54769828     1.08360
C707        C  0.27562272  0.94532946  0.52341837     1.08250
C708        C  0.17605121  0.93555787  0.43347509     1.08390
C709        C  0.26406346  0.49947915  0.63983545     1.08260
O710        O  0.29364514  0.55369402  0.55342690    -0.81330
O711        O  0.23806629  0.97514749  0.37737384    -0.81400
O712        O  0.22615599  0.54580784  0.47843019    -0.81340
O713        O  0.31350243  0.52638311  0.45603761    -0.81320
O714        O  0.29069388  0.97931740  0.42652066    -0.81370
O715        O  0.26525737  0.55634875  0.53800336    -0.81340
O716        O  0.32876800  0.53502118  0.56131577    -0.81300
O717        O  0.23859343  0.02036562  0.38606888    -0.81370
Co718      Co  0.24897380  0.51120073  0.55936234     1.51530
Co719      Co  0.24290827  0.95933272  0.45012081     1.51690
Co720      Co  0.21126475  0.00246105  0.44994740     1.51570
Co721      Co  0.28984779  0.50886903  0.52493071     1.51470
O722        O  0.24708204  0.49604599  0.48532746    -1.43260
C723        C  0.32354159  0.55808024  0.56233029     1.08290
C724        C  0.24248167  0.00148940  0.35821309     1.08380
C725        C  0.24681988  0.56449882  0.51112997     1.08320
C726        C  0.31505659  0.00676478  0.42708455     1.08290
O727        O  0.18522888  0.70375395  0.01387606    -0.81330
O728        O  0.27588427  0.81859647  0.07500885    -0.81350
O729        O  0.23664944  0.71777425  0.12618677    -0.81360
O730        O  0.22059642  0.77530744  0.01806311    -0.81300
O731        O  0.26904254  0.76799358  0.12453095    -0.81420
O732        O  0.19806576  0.75144870  0.94814801    -0.81340
O733        O  0.27313988  0.83068494  0.98987755    -0.81330
O734        O  0.20276543  0.67378965  0.04700816    -0.81360
C735        C  0.17919016  0.67731258  0.02893566     1.08360
C736        C  0.27655177  0.83803187  0.03863379     1.08250
C737        C  0.25194317  0.74289142  0.15035070     1.08390
C738        C  0.19523467  0.76192829  0.99089095     1.08260
O739        O  0.24307853  0.73892016  0.89041351    -0.81330
O740        O  0.31091905  0.77842818  0.06024234    -0.81400
O741        O  0.26379002  0.69212198  0.99651962    -0.81340
O742        O  0.30949920  0.80558366  0.95150927    -0.81320
O743        O  0.31561469  0.80468038  0.03539055    -0.81370
O744        O  0.22132069  0.68412488  0.94546077    -0.81340
O745        O  0.25216962  0.78608435  0.90487055    -0.81300
O746        O  0.29781230  0.72891897  0.07312952    -0.81370
Co747      Co  0.21443447  0.72085194  0.95255314     1.51530
Co748      Co  0.26654861  0.77789121  0.04898203     1.51690
Co749      Co  0.25045669  0.70672744  0.05743071     1.51570
Co750      Co  0.26434434  0.78752764  0.98442447     1.51470
O751        O  0.25431661  0.74220310  0.00173037    -1.43260
C752        C  0.25137216  0.76609969  0.87312243     1.08290
C753        C  0.31850399  0.75651325  0.06044864     1.08380
C754        C  0.24411491  0.67819241  0.95974886     1.08320
C755        C  0.32835635  0.81697414  0.98988216     1.08290
O756        O  0.22022338  0.68497387  0.43595237    -0.81330
O757        O  0.23576224  0.80434627  0.47107468    -0.81350
O758        O  0.19028944  0.72011690  0.58952880    -0.81360
O759        O  0.28229593  0.78047791  0.39795248    -0.81300
O760        O  0.19206245  0.75382177  0.52863131    -0.81420
O761        O  0.23063378  0.74368518  0.40845528    -0.81340
O762        O  0.28858139  0.82899772  0.45827799    -0.81330
O763        O  0.19512014  0.69548779  0.49886553    -0.81360
C764        C  0.19393820  0.67810028  0.46103423     1.08360
C765        C  0.26157844  0.82938126  0.46053532     1.08250
C766        C  0.17604828  0.73336251  0.56451177     1.08390
C767        C  0.25421384  0.76207260  0.37798784     1.08260
O768        O  0.28461795  0.73183072  0.42823900    -0.81330
O769        O  0.23573321  0.77328896  0.61845848    -0.81400
O770        O  0.22133430  0.68043165  0.58484477    -0.81340
O771        O  0.31689861  0.81061680  0.54285146    -0.81320
O772        O  0.28003276  0.82472938  0.56133865    -0.81370
O773        O  0.25969845  0.70221569  0.52283994    -0.81340
O774        O  0.31593473  0.76492852  0.48478735    -0.81300
O775        O  0.25802089  0.74262512  0.61918620    -0.81370
Co776      Co  0.24346482  0.72432784  0.46796095     1.51530
Co777      Co  0.23626139  0.78722998  0.54243652     1.51690
Co778      Co  0.23086952  0.72125764  0.55585494     1.51570
Co779      Co  0.29835458  0.79378035  0.47335832     1.51470
O780        O  0.25525284  0.76206507  0.51113921    -1.43260
C781        C  0.31302467  0.74803744  0.44724805     1.08290
C782        C  0.25047459  0.76056268  0.64333290     1.08380
C783        C  0.24245403  0.67885502  0.55494766     1.08320
C784        C  0.30967153  0.82961862  0.56291041     1.08290
C785        C  0.23771506  0.77831187  0.72703819    -0.10340
C786        C  0.25533995  0.76561314  0.70208642     0.05850
C787        C  0.27566165  0.75780704  0.73444649    -0.04110
C788        C  0.27623483  0.76087880  0.78985384    -0.08560
C789        C  0.25721249  0.77201653  0.81462278     0.04970
C790        C  0.23835313  0.78134938  0.78224017    -0.03590
Br791      Br  0.20973861  0.79467204  0.81189645    -0.03280
H792        H  0.22187868  0.78472496  0.70387068     0.08880
H793        H  0.29069125  0.75325949  0.81421771     0.06900
Br794      Br  0.30299396  0.74267516  0.70609445    -0.03710
C795        C  0.22148968  0.73508921  0.23739719    -0.10340
C796        C  0.25111355  0.74447474  0.20950303     0.05850
C797        C  0.28092647  0.76058853  0.23733692    -0.04110
C798        C  0.28104499  0.76676788  0.29087899    -0.08560
C799        C  0.25172348  0.75784172  0.31907754     0.04970
C800        C  0.22158386  0.74205249  0.29125789    -0.03590
Br801      Br  0.18006298  0.73185562  0.32277396    -0.03280
H802        H  0.19826283  0.72349107  0.21682675     0.08880
H803        H  0.30458139  0.77835021  0.31075372     0.06900
Br804      Br  0.32290325  0.77475733  0.20459449    -0.03710
C805        C  0.24682706  0.86019616  0.51792419    -0.10340
C806        C  0.26311122  0.85918776  0.47213875     0.05850
C807        C  0.28595295  0.88725714  0.44633052    -0.04110
C808        C  0.29308557  0.91572508  0.46716388    -0.08560
C809        C  0.27709517  0.91676205  0.51334295     0.04970
C810        C  0.25380416  0.88847888  0.53865194    -0.03590
Br811      Br  0.23143756  0.88742620  0.60281960    -0.03280
H812        H  0.22973030  0.83886285  0.53935250     0.08880
H813        H  0.30975454  0.93699856  0.44572749     0.06900
Br814      Br  0.30473540  0.88689326  0.37954965    -0.03710
C815        C  0.21657859  0.62176185  0.54884040    -0.10340
C816        C  0.24547919  0.64999512  0.55144257     0.05850
C817        C  0.27548308  0.65043614  0.53978186    -0.04110
C818        C  0.27600731  0.62288081  0.52721284    -0.08560
C819        C  0.24656356  0.59445375  0.52282566     0.04970
C820        C  0.21679233  0.59488972  0.53372336    -0.03590
Br821      Br  0.17436242  0.56034457  0.52913978    -0.03280
H822        H  0.19314083  0.62094985  0.55556792     0.08880
H823        H  0.29939379  0.62396823  0.51917504     0.06900
Br824      Br  0.31612022  0.68850354  0.54046634    -0.03710
C825        C  0.28512148  0.50346959  0.78282074    -0.10340
C826        C  0.25491772  0.98046120  0.80416058     0.05850
C827        C  0.23065581  0.95942847  0.77045508    -0.04110
C828        C  0.23580808  0.96360621  0.71555068    -0.08560
C829        C  0.26474224  0.48848463  0.69420604     0.04970
C830        C  0.29018153  0.50757763  0.72801123    -0.03590
Br831      Br  0.33073851  0.54154435  0.70089799    -0.03280
H832        H  0.30398696  0.51948003  0.80866062     0.08880
H833        H  0.21596283  0.94926891  0.68943689     0.06900
Br834      Br  0.18811811  0.92804382  0.79609134    -0.03710
C835        C  0.23494891  0.98192923  0.26870343    -0.10340
C836        C  0.24853939  0.00764781  0.30089496     0.05850
C837        C  0.26705533  0.53774403  0.27741315    -0.04110
C838        C  0.27104149  0.54153228  0.22229900    -0.08560
C839        C  0.25724825  0.51571642  0.19047106     0.04970
C840        C  0.23915685  0.98569031  0.21393988    -0.03590
Br841      Br  0.21736967  0.94915019  0.17345823    -0.03280
H842        H  0.22024231  0.95864073  0.28607973     0.08880
H843        H  0.28526511  0.56470759  0.20419353     0.06900
Br844      Br  0.28885700  0.57413671  0.31813365    -0.03710
C845        C  0.30753462  0.89511657  0.04654219    -0.10340
C846        C  0.27819861  0.86698932  0.05321072     0.05850
C847        C  0.24969584  0.86674917  0.07159911    -0.04110
C848        C  0.24993985  0.89462394  0.07846997    -0.08560
C849        C  0.27827390  0.92315532  0.06675152     0.04970
C850        C  0.30802830  0.92327718  0.05409775    -0.03590
Br851      Br  0.34966622  0.96048303  0.04373764    -0.03280
H852        H  0.32980120  0.89520842  0.03394290     0.08880
H853        H  0.22705362  0.89389883  0.08926462     0.06900
Br854      Br  0.20875445  0.82910812  0.08263464    -0.03710
C855        C  0.27355555  0.62167255  0.93795905    -0.10340
C856        C  0.24441089  0.59427001  0.95084303     0.05850
C857        C  0.21415441  0.59455042  0.95125567    -0.04110
C858        C  0.21412016  0.62271664  0.94649731    -0.08560
C859        C  0.24385560  0.65055032  0.94130083     0.04970
C860        C  0.27336607  0.64987142  0.93289598    -0.03590
Br861      Br  0.31383095  0.68694571  0.91656223    -0.03280
H862        H  0.29668921  0.62139945  0.93504878     0.08880
H863        H  0.19110225  0.62296426  0.95185916     0.06900
Br864      Br  0.17214788  0.55784547  0.95924259    -0.03710
C865        C  0.40759669  0.62792661  0.54054757    -0.10340
C866        C  0.40151423  0.65249621  0.55020533     0.05850
C867        C  0.37261714  0.64551629  0.57829418    -0.04110
C868        C  0.34698114  0.61446125  0.58319577    -0.08560
C869        C  0.35190760  0.58995697  0.56738287     0.04970
C870        C  0.38422500  0.59715402  0.55272663    -0.03590
Br871      Br  0.39930222  0.56708255  0.55041480    -0.03280
H872        H  0.43114743  0.63266497  0.52437049     0.08880
H873        H  0.32356404  0.60939874  0.60042636     0.06900
Br874      Br  0.36921188  0.67663464  0.61551039    -0.03710
C875        C  0.14898082  0.87861814  0.42903903    -0.10340
C876        C  0.14666123  0.90575821  0.41937950     0.05850
C877        C  0.11616002  0.90249199  0.40092331    -0.04110
C878        C  0.08798571  0.87297004  0.40181921    -0.08560
C879        C  0.08985946  0.84615266  0.41768759     0.04970
C880        C  0.12147715  0.84922814  0.42712986    -0.03590
Br881      Br  0.12979749  0.81489052  0.43949942    -0.03280
H882        H  0.17247394  0.88018939  0.43963887     0.08880
H883        H  0.06430190  0.87118419  0.39208174     0.06900
Br884      Br  0.11037266  0.93627812  0.37367745    -0.03710
C885        C  0.40190947  0.78027695  0.40574910    -0.10340
C886        C  0.40531038  0.75348519  0.40891934     0.05850
C887        C  0.37625325  0.72419934  0.41302505    -0.04110
C888        C  0.34540838  0.72254238  0.41980166    -0.08560
C889        C  0.34313057  0.74957779  0.42492239     0.04970
C890        C  0.37142383  0.77859750  0.41461568    -0.03590
Br891      Br  0.36996138  0.81689107  0.41334672    -0.03280
H892        H  0.42326181  0.80288730  0.39964473     0.08880
H893        H  0.32354095  0.70006097  0.42476820     0.06900
Br894      Br  0.37684298  0.68562880  0.41068066    -0.03710
C895        C  0.09491027  0.72325247  0.62328435    -0.10340
C896        C  0.08048107  0.72747908  0.57585611     0.05850
C897        C  0.09531047  0.72772176  0.52710098    -0.04110
C898        C  0.12560888  0.72901645  0.52645907    -0.08560
C899        C  0.14101257  0.72576897  0.57239676     0.04970
C900        C  0.12482592  0.72177315  0.62171307    -0.03590
Br901      Br  0.14500497  0.71922338  0.68735835    -0.03280
H902        H  0.08450925  0.72349658  0.66129413     0.08880
H903        H  0.13853254  0.73519448  0.48883163     0.06900
Br904      Br  0.07898855  0.73104816  0.45767314    -0.03710
C905        C  0.50180618  0.78436926  0.78311054    -0.10340
C906        C  0.49646978  0.75578992  0.80711593     0.05850
C907        C  0.99763573  0.73374805  0.77535902    -0.04110
C908        C  0.00372758  0.74049149  0.72066571    -0.08560
C909        C  0.00892029  0.76903578  0.69699694     0.04970
C910        C  0.50771844  0.79095219  0.72859719    -0.03590
Br911      Br  0.51200166  0.82921751  0.69870496    -0.03280
H912        H  0.50070623  0.80157836  0.80680148     0.08880
H913        H  0.00386043  0.72308830  0.69635664     0.06900
Br914      Br  0.99246569  0.69494382  0.80462930    -0.03710
C915        C  0.46673405  0.72297877  0.27048800    -0.10340
C916        C  0.49405254  0.73599608  0.30411686     0.05850
C917        C  0.02529976  0.75671110  0.28165633    -0.04110
C918        C  0.02863154  0.76411769  0.22691928    -0.08560
C919        C  0.00130668  0.75140091  0.19301205     0.04970
C920        C  0.46992076  0.73060461  0.21567834    -0.03590
Br921      Br  0.42981286  0.71298482  0.17552584    -0.03280
H922        H  0.44241847  0.70790202  0.28730851     0.08880
H923        H  0.05302439  0.77952626  0.21072515     0.06900
Br924      Br  0.06477190  0.77481999  0.32320727    -0.03710
C925        C  0.40968425  0.62382124  0.10290862    -0.10500
C926        C  0.41668994  0.64733391  0.06353661     0.05850
C927        C  0.39332760  0.64198296  0.02240582    -0.04110
C928        C  0.36405469  0.61417873  0.02194257    -0.08560
C929        C  0.35731035  0.59070081  0.06047064     0.04970
C930        C  0.38015686  0.59560813  0.10180954    -0.03590
Br931      Br  0.37170849  0.56544368  0.15916957    -0.03280
H932        H  0.42697139  0.62748709  0.13480957     0.08880
H933        H  0.34694040  0.61036457  0.98962978     0.06900
Br934      Br  0.39930071  0.66928710  0.96159000    -0.03710
C935        C  0.11423657  0.85751861  0.91734174    -0.10340
C936        C  0.08426263  0.85809515  0.92157124     0.05850
C937        C  0.08562996  0.88727143  0.92053897    -0.04110
C938        C  0.11607286  0.91426296  0.92575604    -0.08560
C939        C  0.14513264  0.91234214  0.93187033     0.04970
C940        C  0.14433174  0.88397591  0.92431555    -0.03590
Br941      Br  0.18329178  0.87947739  0.92563383    -0.03280
H942        H  0.11420060  0.83563613  0.91477277     0.08880
H943        H  0.11682909  0.93648263  0.92778256     0.06900
Br944      Br  0.04762304  0.89200395  0.91165828    -0.03710
C945        C  0.35123668  0.76375344  0.97817673    -0.10340
C946        C  0.34978580  0.76240673  0.03442783     0.05850
C947        C  0.37639910  0.76315613  0.06272887    -0.04110
C948        C  0.40237813  0.76318848  0.03556066    -0.08560
C949        C  0.40395913  0.76430644  0.97956816     0.04970
C950        C  0.37832596  0.76534169  0.95071991    -0.03590
Br951      Br  0.37796921  0.76592302  0.87456022    -0.03280
H952        H  0.33063032  0.76246844  0.95541521     0.08880
H953        H  0.42103601  0.76141560  0.05924346     0.06900
Br954      Br  0.37931781  0.76441277  0.13823329    -0.03710
C955        C  0.14111852  0.75768730  0.97141936    -0.10340
C956        C  0.16260475  0.75632910  0.00943790     0.05850
C957        C  0.15174717  0.74833668  0.06312220    -0.04110
C958        C  0.12040001  0.74342643  0.07804539    -0.08560
C959        C  0.09965299  0.74640120  0.04002379     0.04970
C960        C  0.11035918  0.75335069  0.98604917    -0.03590
Br961      Br  0.08422000  0.75796377  0.92947129    -0.03280
H962        H  0.14870237  0.76315607  0.93002696     0.08880
H963        H  0.11308546  0.73905342  0.11956373     0.06900
Br964      Br  0.17836376  0.74366949  0.11771316    -0.03710
C965        C  0.33301228  0.88704831  0.57473631    -0.10340
C966        C  0.33702097  0.86035220  0.57904419     0.05850
C967        C  0.36899762  0.86479171  0.58875101    -0.04110
C968        C  0.39607438  0.89469703  0.58507544    -0.08560
C969        C  0.39253560  0.92116558  0.57248511     0.04970
C970        C  0.36045633  0.91728422  0.57185719    -0.03590
Br971      Br  0.35334505  0.95236562  0.56461924    -0.03280
H972        H  0.30867276  0.88445470  0.57010262     0.08880
H973        H  0.42042026  0.89691713  0.58867918     0.06900
Br974      Br  0.37782713  0.83101301  0.60488983    -0.03710
C975        C  0.16115317  0.62194644  0.43896202    -0.10340
C976        C  0.16208156  0.65015025  0.44867136     0.05850
C977        C  0.13181347  0.65025044  0.45099213    -0.04110
C978        C  0.10192408  0.62242947  0.45529585    -0.08560
C979        C  0.10135864  0.59411109  0.45098299     0.04970
C980        C  0.13081205  0.59431087  0.43771569    -0.03590
Br981      Br  0.12974797  0.55784288  0.41348956    -0.03280
H982        H  0.18386734  0.62127468  0.43308543     0.08880
H983        H  0.07910508  0.62297212  0.46075955     0.06900
Br984      Br  0.12957586  0.68708916  0.43598390    -0.03710
C985        C  0.40604147  0.53571024  0.42158322    -0.10340
C986        C  0.40559375  0.00764773  0.41112400     0.05850
C987        C  0.37784941  0.98517160  0.38485063    -0.04110
C988        C  0.34879974  0.98736839  0.38222253    -0.08560
C989        C  0.34722613  0.01236878  0.40403980     0.04970
C990        C  0.37736695  0.53857107  0.41573906    -0.03590
Br991      Br  0.38060210  0.57864706  0.42006889    -0.03280
H992        H  0.42812210  0.55494951  0.43658314     0.08880
H993        H  0.32678901  0.96829527  0.36666778     0.06900
Br994      Br  0.37858598  0.95140495  0.35185857    -0.03710
C995        C  0.09883378  0.47774159  0.49999565    -0.10340
C996        C  0.08449824  0.48359127  0.54308236     0.05850
C997        C  0.10046212  0.48888888  0.59291934    -0.04110
C998        C  0.13166921  0.49035760  0.59677318    -0.08560
C999        C  0.14766992  0.48976086  0.55019997     0.04970
C1000       C  0.13133687  0.48574290  0.50128690    -0.03590
Br1001     Br  0.15414435  0.50219178  0.43436548    -0.03280
H1002       H  0.08708712  0.47335602  0.46139374     0.08880
H1003       H  0.14409861  0.49399057  0.63462979     0.06900
Br1004     Br  0.08222415  0.99636374  0.65446570    -0.03710
C1005       C  0.02833309  0.90794163  0.50439666    -0.10340
C1006       C  0.01110422  0.90930255  0.45877420     0.05850
C1007       C  0.49071404  0.88129980  0.43441729    -0.04110
C1008       C  0.48803558  0.85322337  0.45546229    -0.08560
C1009       C  0.00565910  0.85193491  0.50078089     0.04970
C1010       C  0.02700618  0.88019918  0.52405132    -0.03590
Br1011     Br  0.05381732  0.88259004  0.58431787    -0.03280
H1012       H  0.04114832  0.92805926  0.52739394     0.08880
H1013       H  0.47253150  0.83232843  0.43543873     0.06900
Br1014     Br  0.46404290  0.88005786  0.37457197    -0.03710
C1015       C  0.00725066  0.64174868  0.47193490    -0.10340
C1016       C  0.50454889  0.65623318  0.51657809     0.05850
C1017       C  0.49986551  0.64041856  0.56758142    -0.04110
C1018       C  0.49440492  0.61012145  0.57179581    -0.08560
C1019       C  0.49537804  0.59524695  0.52720051     0.04970
C1020       C  0.00333240  0.61162752  0.47708579    -0.03590
Br1021     Br  0.00703428  0.59334476  0.41400139    -0.03280
H1022       H  0.01092901  0.65319744  0.43283835     0.08880
H1023       H  0.48977779  0.59812482  0.61060381     0.06900
Br1024     Br  0.49978662  0.65741103  0.63487908    -0.03710
C1025       C  0.03417306  0.53229153  0.71739733    -0.10340
C1026       C  0.51023873  0.00965095  0.68577765     0.05850
C1027       C  0.48781852  0.98065834  0.71037792    -0.04110
C1028       C  0.48726521  0.97628025  0.76572500    -0.08560
C1029       C  0.50916729  0.50009437  0.79764332     0.04970
C1030       C  0.03416989  0.52765959  0.77252304    -0.03590
Br1031     Br  0.06923762  0.56007148  0.81039469    -0.03280
H1032       H  0.05274438  0.55416012  0.69933131     0.08880
H1033       H  0.46846914  0.95457394  0.78392471     0.06900
Br1034     Br  0.45798377  0.94556743  0.67176119    -0.03710
C1035       C  0.02105689  0.50452645  0.21494498    -0.10340
C1036       C  0.99462785  0.50097205  0.18264670     0.05850
C1037       C  0.46264016  0.98728847  0.20580664    -0.04110
C1038       C  0.45821196  0.97876331  0.26049299    -0.08560
C1039       C  0.98504019  0.48318303  0.29242891     0.04970
C1040       C  0.01652555  0.49558588  0.26870249    -0.03590
Br1041     Br  0.05483986  0.50130964  0.30807822    -0.03280
H1042       H  0.04560959  0.51385176  0.19824165     0.08880
H1043       H  0.43411171  0.96996459  0.27838323     0.06900
Br1044     Br  0.42429012  0.98088918  0.16615451    -0.03710
C1045       C  0.38092699  0.84384075  0.03483080    -0.10340
C1046       C  0.36233010  0.84299715  0.98940676     0.05850
C1047       C  0.36982135  0.87109090  0.96177399    -0.04110
C1048       C  0.39318532  0.89915527  0.98245336    -0.08560
C1049       C  0.40894447  0.89992292  0.03138806     0.04970
C1050       C  0.40223495  0.87164637  0.05775377    -0.03590
Br1051     Br  0.41632908  0.86865384  0.12902651    -0.03280
H1052       H  0.37509323  0.82265363  0.05772228     0.08880
H1053       H  0.39824696  0.92053232  0.96067566     0.06900
Br1054     Br  0.34596961  0.87269355  0.89982863    -0.03710
C1055       C  0.13296229  0.65510168  0.96478334    -0.10340
C1056       C  0.14790874  0.65101992  0.01184616     0.05850
C1057       C  0.13445518  0.62150884  0.03738181    -0.04110
C1058       C  0.10728582  0.59678808  0.01536889    -0.08560
C1059       C  0.09276440  0.60055636  0.96770895     0.04970
C1060       C  0.10575662  0.63009502  0.94247069    -0.03590
Br1061     Br  0.08892301  0.63667683  0.87585026    -0.03280
H1062       H  0.14332251  0.67761609  0.94382194     0.08880
H1063       H  0.09743913  0.57430505  0.03618926     0.06900
Br1064     Br  0.15138875  0.61359664  0.10297888    -0.03710
C1065       C  0.38198137  0.98531576  0.89525908    -0.10340
C1066       C  0.40904034  0.01538470  0.89848567     0.05850
C1067       C  0.40269633  0.54053716  0.89862060    -0.04110
C1068       C  0.37036486  0.53475836  0.90758334    -0.08560
C1069       C  0.34388674  0.00414571  0.91376782     0.04970
C1070       C  0.34966992  0.97950154  0.90196449    -0.03590
Br1071     Br  0.31565497  0.93694100  0.89845413    -0.03280
H1072       H  0.38600556  0.96565993  0.89093859     0.08880
H1073       H  0.36632113  0.55432896  0.91265044     0.06900
Br1074     Br  0.43667120  0.58281177  0.88804994    -0.03710
C1075       C  0.12433482  0.96316951  0.05091483    -0.10340
C1076       C  0.15251451  0.49133660  0.05867094     0.05850
C1077       C  0.14965378  0.51418604  0.08591309    -0.04110
C1078       C  0.11826544  0.51009815  0.09787166    -0.08560
C1079       C  0.08932640  0.48317061  0.08406313     0.04970
C1080       C  0.09318798  0.95883570  0.06413197    -0.03590
Br1081     Br  0.05771427  0.91971659  0.05004823    -0.03280
H1082       H  0.12643640  0.94492389  0.03211546     0.08880
H1083       H  0.11644627  0.52938739  0.11302938     0.06900
Br1084     Br  0.18753908  0.55246510  0.10308522    -0.03710
C1085       C  0.48258812  0.88251096  0.05635593    -0.10340
C1086       C  0.48003186  0.89079280  0.00255635     0.05850
C1087       C  0.97397009  0.86924388  0.96444581    -0.04110
C1088       C  0.97787474  0.84353600  0.97838847    -0.08560
C1089       C  0.98415299  0.83658049  0.03096637     0.04970
C1090       C  0.48461173  0.85558426  0.07071269    -0.03590
Br1091     Br  0.49115255  0.84723768  0.14376131    -0.03280
H1092       H  0.48580550  0.89831818  0.08701248     0.08880
H1093       H  0.97976532  0.83161595  0.94584495     0.06900
Br1094     Br  0.96483102  0.87574373  0.89153934    -0.03710
C1095       C  0.46862431  0.62162756  0.99999322    -0.10340
C1096       C  0.49794158  0.64893143  0.98474972     0.05850
C1097       C  0.02755026  0.64756523  0.98760439    -0.04110
C1098       C  0.02784322  0.62045033  0.00606752    -0.08560
C1099       C  0.99873769  0.59291940  0.02004034     0.04970
C1100       C  0.46873839  0.59386214  0.01703781    -0.03590
Br1101     Br  0.42749941  0.55848748  0.03802875    -0.03280
H1102       H  0.44547833  0.62194905  0.99967870     0.08880
H1103       H  0.05125278  0.62070375  0.00706068     0.06900
Br1104     Br  0.06839292  0.68106031  0.96245113    -0.03710
O1105       O  0.52904044  0.06546914  0.03608349    -0.81330
O1106       O  0.94007716  0.45513533  0.02259606    -0.81350
O1107       O  0.96896698  0.04287630  0.90474181    -0.81360
O1108       O  0.47915065  0.49466794  0.09168923    -0.81300
O1109       O  0.94121034  0.49288725  0.93026466    -0.81420
O1110       O  0.53085892  0.02239967  0.10742960    -0.81340
O1111       O  0.95661099  0.43250389  0.08339246    -0.81330
O1112       O  0.97870326  0.03862623  0.00957571    -0.81360
C1113       C  0.50098409  0.06349743  0.02723787     1.08360
C1114       C  0.93458954  0.43033260  0.04980796     1.08250
C1115       C  0.94170539  0.01780591  0.91060220     1.08390
C1116       C  0.50140359  0.50807460  0.12469181     1.08260
O1117       O  0.56668299  0.00808051  0.03192821    -0.81330
O1118       O  0.98160978  0.47249646  0.87815725    -0.81400
O1119       O  0.53645048  0.07105532  0.93863193    -0.81340
O1120       O  0.50591452  0.44436719  0.01352435    -0.81320
O1121       O  0.96696350  0.42738685  0.95754586    -0.81370
O1122       O  0.56368194  0.04758969  0.95940586    -0.81340
O1123       O  0.53174945  0.47342706  0.08992362    -0.81300
O1124       O  0.01163795  0.02267140  0.87890435    -0.81370
Co1125     Co  0.54571078  0.03406625  0.03092752     1.51530
Co1126     Co  0.96282054  0.46615565  0.95104293     1.51690
Co1127     Co  0.99442658  0.02833751  0.94540309     1.51570
Co1128     Co  0.49118240  0.46981682  0.04802309     1.51470
O1129       O  0.50807818  0.00097764  0.98799202    -1.43260
C1130       C  0.56069876  0.48766112  0.06851497     1.08290
C1131       C  0.00130472  0.99807490  0.85492647     1.08380
C1132       C  0.56421391  0.07256653  0.94779524     1.08320
C1133       C  0.98546084  0.42239151  0.98837047     1.08290
O1134       O  0.50243379  0.00660303  0.37221384    -0.81330
O1135       O  0.96324878  0.04172019  0.55549476    -0.81350
O1136       O  0.92602667  0.47269796  0.44016856    -0.81360
O1137       O  0.56649863  0.05223996  0.51008573    -0.81300
O1138       O  0.95654459  0.02215485  0.45506662    -0.81420
O1139       O  0.54978332  0.05078982  0.42859889    -0.81340
O1140       O  0.51240218  0.05740645  0.51956708    -0.81330
O1141       O  0.96536665  0.45755470  0.37946596    -0.81360
C1142       C  0.48288596  0.98214201  0.35082800     1.08360
C1143       C  0.48998598  0.06343153  0.53515162     1.08250
C1144       C  0.93139324  0.50069118  0.43435215     1.08390
C1145       C  0.57086414  0.06471929  0.46372574     1.08260
O1146       O  0.56291735  0.00424239  0.47967654    -0.81330
O1147       O  0.92563047  0.47665073  0.54224225    -0.81400
O1148       O  0.98084809  0.43325406  0.47749787    -0.81340
O1149       O  0.53643631  0.03819669  0.60588352    -0.81320
O1150       O  0.98469330  0.50162343  0.59879854    -0.81370
O1151       O  0.52026732  0.45933159  0.41851673    -0.81340
O1152       O  0.53690989  0.99042464  0.55704364    -0.81300
O1153       O  0.94530541  0.44602450  0.53489416    -0.81370
Co1154     Co  0.53148288  0.00500906  0.42681303     1.51530
Co1155     Co  0.97215428  0.51233141  0.52307600     1.51690
Co1156     Co  0.95620878  0.45442487  0.45949732     1.51570
Co1157     Co  0.52170829  0.02106820  0.53878361     1.51470
O1158       O  0.49527923  0.99503756  0.47952091    -1.43260
C1159       C  0.55942969  0.99241641  0.52680347     1.08290
C1160       C  0.92236690  0.44972873  0.55088285     1.08380
C1161       C  0.50452462  0.43583454  0.45095986     1.08320
C1162       C  0.51027822  0.51707833  0.62794560     1.08290
O1163       O  0.94798339  0.20111750  0.04276591    -0.81330
O1164       O  0.52484178  0.32082426  0.04558539    -0.81350
O1165       O  0.48635981  0.23956983  0.10309071    -0.81360
O1166       O  0.95378416  0.28258095  0.92714229    -0.81300
O1167       O  0.53434537  0.27860854  0.11564577    -0.81420
O1168       O  0.93548318  0.23873430  0.97466294    -0.81340
O1169       O  0.47619705  0.28533446  0.02882411    -0.81330
O1170       O  0.97472410  0.18053481  0.08524793    -0.81360
C1171       C  0.94768243  0.17718116  0.06494127     1.08360
C1172       C  0.49467930  0.31263292  0.04077718     1.08250
C1173       C  0.50712857  0.25752641  0.13449002     1.08390
C1174       C  0.93101418  0.26090902  0.95518361     1.08260
O1175       O  0.97120037  0.22582440  0.88871263    -0.81330
O1176       O  0.57466237  0.27617762  0.03528177    -0.81400
O1177       O  0.51898892  0.20214611  0.00182463    -0.81340
O1178       O  0.52574361  0.32209341  0.94376509    -0.81320
O1179       O  0.56388156  0.31110371  0.96907790    -0.81370
O1180       O  0.97381391  0.18168180  0.95958519    -0.81340
O1181       O  0.00520463  0.27462605  0.89164459    -0.81300
O1182       O  0.54607042  0.23192374  0.08068662    -0.81370
Co1183     Co  0.96316074  0.21686861  0.96818230     1.51530
Co1184     Co  0.54610490  0.29354339  0.03903143     1.51690
Co1185     Co  0.50142254  0.22132718  0.04893990     1.51570
Co1186     Co  0.98906080  0.27700917  0.96006113     1.51470
O1187       O  0.51113969  0.25563994  0.99592193    -1.43260
C1188       C  0.99099484  0.25127585  0.86524150     1.08290
C1189       C  0.57220360  0.25152222  0.05530778     1.08380
C1190       C  0.99792661  0.17942093  0.97837232     1.08320
C1191       C  0.55599909  0.32895124  0.94389291     1.08290
O1192       O  0.94165979  0.18594592  0.48779331    -0.81330
O1193       O  0.53235266  0.32272133  0.52832317    -0.81350
O1194       O  0.48486120  0.25680557  0.61393728    -0.81360
O1195       O  0.96441040  0.28213030  0.40064154    -0.81300
O1196       O  0.53816876  0.28612470  0.61411359    -0.81420
O1197       O  0.94266210  0.23594616  0.44238998    -0.81340
O1198       O  0.98040134  0.29642835  0.50451082    -0.81330
O1199       O  0.93835869  0.20736797  0.55961430    -0.81360
C1200       C  0.92672657  0.18411098  0.53062474     1.08360
C1201       C  0.50515897  0.32196234  0.51618523     1.08250
C1202       C  0.51069301  0.27287243  0.63876574     1.08390
C1203       C  0.93897368  0.25703746  0.41541912     1.08260
O1204       O  0.96777835  0.20662079  0.38535758    -0.81330
O1205       O  0.56471365  0.26222949  0.54019538    -0.81400
O1206       O  0.48522439  0.18726784  0.54899310    -0.81340
O1207       O  0.53070946  0.31386914  0.42768512    -0.81320
O1208       O  0.56145650  0.29612164  0.46016397    -0.81370
O1209       O  0.00688218  0.20207275  0.46858936    -0.81340
O1210       O  0.00420150  0.25635757  0.39013012    -0.81300
O1211       O  0.53171379  0.23121716  0.60382538    -0.81370
Co1212     Co  0.97959248  0.22340779  0.45432739     1.51530
Co1213     Co  0.54667613  0.28974413  0.53439491     1.51690
Co1214     Co  0.48555246  0.22316572  0.57841967     1.51570
Co1215     Co  0.99017375  0.27366777  0.45195582     1.51470
O1216       O  0.50283297  0.25276585  0.51272455    -1.43260
C1217       C  0.98842300  0.23227975  0.36239609     1.08290
C1218       C  0.55726718  0.24040692  0.57412481     1.08380
C1219       C  0.00000198  0.18406365  0.51055042     1.08320
C1220       C  0.55924459  0.31688981  0.43298358     1.08290
O1221       O  0.70538113  0.99525511  0.06180102    -0.81330
O1222       O  0.74531936  0.44640872  0.04490911    -0.81350
O1223       O  0.68661025  0.46455800  0.91689113    -0.81360
O1224       O  0.76680955  0.00307428  0.10443183    -0.81300
O1225       O  0.69354025  0.43688750  0.98216984    -0.81420
O1226       O  0.75673365  0.04230546  0.11093819    -0.81340
O1227       O  0.79712464  0.47717927  0.04671028    -0.81330
O1228       O  0.68921730  0.50674079  0.98452893    -0.81360
C1229       C  0.68373388  0.99742055  0.03361615     1.08360
C1230       C  0.77349603  0.45045128  0.05617693     1.08250
C1231       C  0.67614030  0.43962101  0.94543951     1.08390
C1232       C  0.76090795  0.02089924  0.13304000     1.08260
O1233       O  0.80108667  0.05924239  0.03244145    -0.81330
O1234       O  0.73573811  0.45780057  0.89015606    -0.81400
O1235       O  0.75330026  0.05241711  0.93415144    -0.81340
O1236       O  0.81256152  0.02126986  0.96137592    -0.81320
O1237       O  0.78916639  0.47102111  0.94922809    -0.81370
O1238       O  0.73947310  0.05532007  0.01434536    -0.81340
O1239       O  0.82835763  0.03619287  0.06565996    -0.81300
O1240       O  0.75103422  0.50742045  0.87511213    -0.81370
Co1241     Co  0.75199794  0.02431376  0.04489498     1.51530
Co1242     Co  0.74095431  0.45484267  0.96900700     1.51690
Co1243     Co  0.72209855  0.50788566  0.93056310     1.51570
Co1244     Co  0.78868280  0.01269703  0.02924877     1.51470
O1245       O  0.74763478  0.99698929  0.98531157    -1.43260
C1246       C  0.82749048  0.06086211  0.05395795     1.08290
C1247       C  0.74746170  0.48202988  0.85961742     1.08380
C1248       C  0.74632800  0.06641128  0.96727102     1.08320
C1249       C  0.81300241  0.49863771  0.94059634     1.08290
O1250       O  0.70598267  0.01197977  0.57164735    -0.81330
O1251       O  0.74792273  0.44319069  0.51940649    -0.81350
O1252       O  0.68320649  0.46183020  0.41243541    -0.81360
O1253       O  0.77083026  0.98811411  0.59999789    -0.81300
O1254       O  0.69577243  0.43461783  0.46698267    -0.81420
O1255       O  0.75516985  0.01972440  0.63199535    -0.81340
O1256       O  0.80002193  0.47267645  0.52249737    -0.81330
O1257       O  0.68478857  0.97881410  0.51206441    -0.81360
C1258       C  0.68069641  0.99290926  0.54769712     1.08360
C1259       C  0.77561783  0.44532940  0.52341790     1.08250
C1260       C  0.67604762  0.43555950  0.43347359     1.08390
C1261       C  0.76406821  0.99947867  0.63983611     1.08260
O1262       O  0.79364857  0.05369287  0.55342797    -0.81330
O1263       O  0.73806260  0.47514939  0.37737259    -0.81400
O1264       O  0.72616033  0.04580692  0.47842969    -0.81340
O1265       O  0.81350584  0.02638283  0.45603725    -0.81320
O1266       O  0.79068977  0.47931787  0.42652014    -0.81370
O1267       O  0.76526069  0.05634779  0.53800473    -0.81340
O1268       O  0.82877213  0.03502068  0.56131518    -0.81300
O1269       O  0.73858886  0.52036711  0.38606831    -0.81370
Co1270     Co  0.74897721  0.01119952  0.55936328     1.51530
Co1271     Co  0.74290419  0.45933389  0.45011960     1.51690
Co1272     Co  0.71126054  0.50246227  0.44994725     1.51570
Co1273     Co  0.78985190  0.00886867  0.52493077     1.51470
O1274       O  0.74708583  0.99604480  0.48532841    -1.43260
C1275       C  0.82354522  0.05807937  0.56233061     1.08290
C1276       C  0.74247693  0.50149100  0.35821188     1.08380
C1277       C  0.74682363  0.06449794  0.51113009     1.08320
C1278       C  0.81505296  0.50676493  0.42708497     1.08290
O1279       O  0.68523241  0.20375382  0.01388051    -0.81330
O1280       O  0.77589027  0.31860039  0.07500040    -0.81350
O1281       O  0.73665548  0.21778070  0.12618891    -0.81360
O1282       O  0.72060042  0.27530760  0.01806347    -0.81300
O1283       O  0.76905124  0.26799955  0.12452239    -0.81420
O1284       O  0.69806821  0.25144737  0.94815035    -0.81340
O1285       O  0.77314168  0.33068525  0.98986942    -0.81330
O1286       O  0.70276892  0.17379052  0.04701586    -0.81360
C1287       C  0.67919376  0.17731250  0.02894046     1.08360
C1288       C  0.77655471  0.33803402  0.03862457     1.08250
C1289       C  0.75195343  0.24289945  0.15034761     1.08390
C1290       C  0.69523807  0.26192761  0.99089317     1.08260
O1291       O  0.74307978  0.23891765  0.89041468    -0.81330
O1292       O  0.81092302  0.27842920  0.06023558    -0.81400
O1293       O  0.76379181  0.19211988  0.99652682    -0.81340
O1294       O  0.80950190  0.30558406  0.95150246    -0.81320
O1295       O  0.81561956  0.30468095  0.03538274    -0.81370
O1296       O  0.72132332  0.18412396  0.94546595    -0.81340
O1297       O  0.75217049  0.28608200  0.90486887    -0.81300
O1298       O  0.79781478  0.22892010  0.07313422    -0.81370
Co1299     Co  0.71443696  0.22085079  0.95255595     1.51530
Co1300     Co  0.76655378  0.27789420  0.04897521     1.51690
Co1301     Co  0.75045998  0.20672907  0.05743541     1.51570
Co1302     Co  0.76434753  0.28752787  0.98442145     1.51470
O1303       O  0.75432037  0.24220333  0.00173008    -1.43260
C1304       C  0.75137290  0.26609680  0.87312208     1.08290
C1305       C  0.81850658  0.25651326  0.06044789     1.08380
C1306       C  0.74411639  0.17819037  0.95975613     1.08320
C1307       C  0.82836042  0.31697412  0.98987399     1.08290
O1308       O  0.72022656  0.18497560  0.43594733    -0.81330
O1309       O  0.73576046  0.30434553  0.47107846    -0.81350
O1310       O  0.69028870  0.22011352  0.58952688    -0.81360
O1311       O  0.78229906  0.28048173  0.39795492    -0.81300
O1312       O  0.69206207  0.25381838  0.52862969    -0.81420
O1313       O  0.73063748  0.24368723  0.40845264    -0.81340
O1314       O  0.78857999  0.32899840  0.45828471    -0.81330
O1315       O  0.69512183  0.19548717  0.49886152    -0.81360
C1316       C  0.69394092  0.17810094  0.46102878     1.08360
C1317       C  0.76157643  0.32938098  0.46054069     1.08250
C1318       C  0.67604763  0.23335925  0.56450995     1.08390
C1319       C  0.75421807  0.26207629  0.37798726     1.08260
O1320       O  0.78462084  0.23183343  0.42823908    -0.81330
O1321       O  0.73573081  0.27328461  0.61845959    -0.81400
O1322       O  0.72133503  0.18042984  0.58484074    -0.81340
O1323       O  0.81689661  0.31061630  0.54285794    -0.81320
O1324       O  0.78002927  0.32472721  0.56134418    -0.81370
O1325       O  0.75969975  0.20221519  0.52283699    -0.81340
O1326       O  0.81593663  0.26493094  0.48478913    -0.81300
O1327       O  0.75802045  0.24262250  0.61918525    -0.81370
Co1328     Co  0.74346677  0.22432867  0.46795881     1.51530
Co1329     Co  0.73625946  0.28722738  0.54243865     1.51690
Co1330     Co  0.73086989  0.22125605  0.55585294     1.51570
Co1331     Co  0.79835501  0.29378185  0.47336252     1.51470
O1332       O  0.75525292  0.26206453  0.51113979    -1.43260
C1333       C  0.81302711  0.24804017  0.44724944     1.08290
C1334       C  0.75047325  0.26055907  0.64333298     1.08380
C1335       C  0.74245537  0.17885402  0.55494394     1.08320
C1336       C  0.80966824  0.32961715  0.56291739     1.08290
C1337       C  0.73771412  0.27830792  0.72703865    -0.10340
C1338       C  0.75533886  0.26560923  0.70208638     0.05850
C1339       C  0.77566068  0.25780296  0.73444583    -0.04110
C1340       C  0.77623425  0.26087473  0.78985314    -0.08560
C1341       C  0.75721223  0.27201268  0.81462240     0.04970
C1342       C  0.73835264  0.28134550  0.78224051    -0.03590
Br1343     Br  0.70973838  0.29466822  0.81189769    -0.03280
H1344       H  0.72187758  0.28472105  0.70387167     0.08880
H1345       H  0.79069081  0.25325544  0.81421667     0.06900
Br1346     Br  0.80299257  0.24267080  0.70609312    -0.03710
C1347       C  0.72150090  0.23508114  0.23739869    -0.10340
C1348       C  0.75112735  0.24448824  0.20949877     0.05850
C1349       C  0.78094017  0.26062437  0.23732532    -0.04110
C1350       C  0.78105452  0.26679946  0.29086917    -0.08560
C1351       C  0.75172949  0.25784940  0.31907498     0.04970
C1352       C  0.72159076  0.24204256  0.29125899    -0.03590
Br1353     Br  0.68006238  0.23181820  0.32277718    -0.03280
H1354       H  0.69827408  0.22346810  0.21683161     0.08880
H1355       H  0.80459111  0.27839846  0.31073887     0.06900
Br1356     Br  0.82292328  0.27483245  0.20457134    -0.03710
C1357       C  0.74682425  0.36019580  0.51792904    -0.10340
C1358       C  0.76310767  0.35918700  0.47214291     0.05850
C1359       C  0.78594735  0.38725607  0.44633173    -0.04110
C1360       C  0.79307962  0.41572425  0.46716361    -0.08560
C1361       C  0.77709031  0.41676183  0.51334351     0.04970
C1362       C  0.75380044  0.38847887  0.53865466    -0.03590
Br1363     Br  0.73143437  0.38742709  0.60282238    -0.03280
H1364       H  0.72972874  0.33886268  0.53935917     0.08880
H1365       H  0.80974725  0.43699739  0.44572529     0.06900
Br1366     Br  0.80472640  0.38689101  0.37954824    -0.03710
C1367       C  0.71658102  0.12176100  0.54883582    -0.10340
C1368       C  0.74548129  0.14999442  0.55143887     0.05850
C1369       C  0.77548556  0.15043568  0.53978023    -0.04110
C1370       C  0.77601042  0.12288035  0.52721259    -0.08560
C1371       C  0.74656695  0.09445302  0.52282468     0.04970
C1372       C  0.71679539  0.09488896  0.53372002    -0.03590
Br1373     Br  0.67436561  0.06034406  0.52913458    -0.03280
H1374       H  0.69314301  0.12094880  0.55556176     0.08880
H1375       H  0.79939720  0.12396800  0.51917643     0.06900
Br1376     Br  0.81612228  0.18850339  0.54046622    -0.03710
C1377       C  0.78512947  0.00347098  0.78282012    -0.10340
C1378       C  0.75490954  0.48045917  0.80415958     0.05850
C1379       C  0.73064831  0.45942703  0.77045256    -0.04110
C1380       C  0.73580177  0.46360559  0.71554835    -0.08560
C1381       C  0.76474828  0.98848471  0.69420663     0.04970
C1382       C  0.79018856  0.00757786  0.72801029    -0.03590
Br1383     Br  0.83074588  0.04154289  0.70089442    -0.03280
H1384       H  0.80399565  0.01948158  0.80865889     0.08880
H1385       H  0.71595715  0.44926858  0.68943335     0.06900
Br1386     Br  0.68810994  0.42804248  0.79608638    -0.03710
C1387       C  0.73494173  0.48193036  0.26870191    -0.10340
C1388       C  0.74853297  0.50764911  0.30089312     0.05850
C1389       C  0.76706293  0.03774281  0.27741598    -0.04110
C1390       C  0.77105054  0.04153133  0.22230217    -0.08560
C1391       C  0.75725766  0.01571563  0.19047388     0.04970
C1392       C  0.73914812  0.48569119  0.21393795    -0.03590
Br1393     Br  0.71736007  0.44915084  0.17345704    -0.03280
H1394       H  0.72023581  0.45864192  0.28607889     0.08880
H1395       H  0.78527470  0.06470671  0.20419721     0.06900
Br1396     Br  0.78886406  0.07413517  0.31813740    -0.03710
C1397       C  0.80753273  0.39511886  0.04654272    -0.10340
C1398       C  0.77819707  0.36699023  0.05319974     0.05850
C1399       C  0.74969049  0.36674730  0.07157660    -0.04110
C1400       C  0.74993119  0.39462050  0.07844871    -0.08560
C1401       C  0.77826578  0.42315359  0.06674321     0.04970
C1402       C  0.80802292  0.42327801  0.05409926    -0.03590
Br1403     Br  0.84966082  0.46048579  0.04375581    -0.03280
H1404       H  0.82980206  0.39521305  0.03395203     0.08880
H1405       H  0.72704262  0.39389298  0.08923572     0.06900
Br1406     Br  0.70874926  0.32910468  0.08259802    -0.03710
C1407       C  0.77355286  0.12166872  0.93794922    -0.10340
C1408       C  0.74441136  0.09426706  0.95085407     0.05850
C1409       C  0.71415517  0.09454738  0.95128982    -0.04110
C1410       C  0.71411980  0.12271289  0.94653004    -0.08560
C1411       C  0.74385380  0.15054632  0.94131184     0.04970
C1412       C  0.77336224  0.14986726  0.93288750    -0.03590
Br1413     Br  0.81382237  0.18694119  0.91652631    -0.03280
H1414       H  0.79668575  0.12139562  0.93502225     0.08880
H1415       H  0.69110333  0.12296092  0.95190776     0.06900
Br1416     Br  0.67215040  0.05784357  0.95931152    -0.03710
C1417       C  0.90759966  0.12792608  0.54054740    -0.10340
C1418       C  0.90151655  0.15249533  0.55020460     0.05850
C1419       C  0.87261951  0.14551520  0.57829376    -0.04110
C1420       C  0.84698396  0.11446008  0.58319598    -0.08560
C1421       C  0.85191092  0.08995609  0.56738335     0.04970
C1422       C  0.88422843  0.09715346  0.55272711    -0.03590
Br1423     Br  0.89930638  0.06708248  0.55041577    -0.03280
H1424       H  0.93115050  0.13266476  0.52437025     0.08880
H1425       H  0.82356679  0.10939731  0.60042665     0.06900
Br1426     Br  0.86921360  0.17663341  0.61550931    -0.03710
C1427       C  0.64897983  0.37862024  0.42903544    -0.10340
C1428       C  0.64665874  0.40575960  0.41937672     0.05850
C1429       C  0.61615703  0.40249232  0.40092131    -0.04110
C1430       C  0.58798353  0.37296990  0.40181785    -0.08560
C1431       C  0.58985868  0.34615326  0.41768652     0.04970
C1432       C  0.62147689  0.34922980  0.42712735    -0.03590
Br1433     Br  0.62979880  0.31489317  0.43949719    -0.03280
H1434       H  0.67247346  0.38019243  0.43963451     0.08880
H1435       H  0.56429922  0.37118315  0.39208122     0.06900
Br1436     Br  0.61036785  0.43627756  0.37367629    -0.03710
C1437       C  0.90191178  0.28027842  0.40575179    -0.10340
C1438       C  0.90531184  0.25348619  0.40892107     0.05850
C1439       C  0.87625436  0.22420066  0.41302649    -0.04110
C1440       C  0.84540991  0.22254444  0.41980328    -0.08560
C1441       C  0.84313298  0.24958021  0.42492501     0.04970
C1442       C  0.87142657  0.27859967  0.41461889    -0.03590
Br1443     Br  0.86996502  0.31689366  0.41335080    -0.03280
H1444       H  0.92326445  0.30288857  0.39964778     0.08880
H1445       H  0.82354209  0.20006327  0.42476912     0.06900
Br1446     Br  0.87684306  0.18562966  0.41068164    -0.03710
C1447       C  0.59490975  0.22324972  0.62328266    -0.10340
C1448       C  0.58048186  0.22747881  0.57585479     0.05850
C1449       C  0.59531181  0.22772294  0.52709952    -0.04110
C1450       C  0.62560989  0.22901719  0.52645766    -0.08560
C1451       C  0.64101223  0.22576676  0.57239489     0.04970
C1452       C  0.62482477  0.22176929  0.62171102    -0.03590
Br1453     Br  0.64500198  0.21921581  0.68735611    -0.03280
H1454       H  0.58450813  0.22349252  0.66129265     0.08880
H1455       H  0.63853413  0.23519674  0.48883057     0.06900
Br1456     Br  0.57899102  0.23105154  0.45767177    -0.03710
C1457       C  0.00180385  0.28436540  0.78311250    -0.10340
C1458       C  0.99647124  0.25578735  0.80711816     0.05850
C1459       C  0.49764010  0.23374686  0.77536123    -0.04110
C1460       C  0.50373145  0.24049054  0.72066778    -0.08560
C1461       C  0.50892065  0.26903368  0.69699885     0.04970
C1462       C  0.00771543  0.29094848  0.72859909    -0.03590
Br1463     Br  0.01199322  0.32921169  0.69870682    -0.03280
H1464       H  0.00070145  0.30157332  0.80680333     0.08880
H1465       H  0.50386661  0.22308838  0.69635882     0.06900
Br1466     Br  0.49247461  0.19494429  0.80463162    -0.03710
C1467       C  0.96673667  0.22298202  0.27048756    -0.10340
C1468       C  0.99405494  0.23599791  0.30411706     0.05850
C1469       C  0.52530268  0.25671221  0.28165743    -0.04110
C1470       C  0.52863524  0.26411933  0.22692049    -0.08560
C1471       C  0.50131060  0.25140379  0.19301269     0.04970
C1472       C  0.96992416  0.23060845  0.21567814    -0.03590
Br1473     Br  0.92981669  0.21299090  0.17552443    -0.03280
H1474       H  0.94242073  0.20790596  0.28730739     0.08880
H1475       H  0.55302843  0.27952714  0.21072686     0.06900
Br1476     Br  0.56477435  0.27481919  0.32320962    -0.03710
C1477       C  0.90969189  0.12382117  0.10291233    -0.10500
C1478       C  0.91669813  0.14733362  0.06353974     0.05850
C1479       C  0.89333642  0.14198239  0.02240767    -0.04110
C1480       C  0.86406325  0.11417852  0.02194453    -0.08560
C1481       C  0.85731818  0.09070097  0.06047344     0.04970
C1482       C  0.88016439  0.09560815  0.10181286    -0.03590
Br1483     Br  0.87171552  0.06544364  0.15917296    -0.03280
H1484       H  0.92697858  0.12748714  0.13481406     0.08880
H1485       H  0.84694937  0.11036422  0.98963104     0.06900
Br1486     Br  0.89931045  0.16928527  0.96158971    -0.03710
C1487       C  0.61423370  0.35752041  0.91733176    -0.10340
C1488       C  0.58425925  0.35809545  0.92156758     0.05850
C1489       C  0.58562549  0.38727122  0.92054532    -0.04110
C1490       C  0.61606740  0.41426266  0.92576322    -0.08560
C1491       C  0.64512749  0.41234275  0.93187012     0.04970
C1492       C  0.64432829  0.38397786  0.92430903    -0.03590
Br1493     Br  0.68328943  0.37948113  0.92562794    -0.03280
H1494       H  0.61419856  0.33563857  0.91475799     0.08880
H1495       H  0.61682261  0.43648145  0.92779919     0.06900
Br1496     Br  0.54761913  0.39200548  0.91168919    -0.03710
C1497       C  0.85124137  0.26375387  0.97817994    -0.10340
C1498       C  0.84978763  0.26240373  0.03443067     0.05850
C1499       C  0.87639577  0.26314503  0.06273547    -0.04110
C1500       C  0.90237594  0.26317766  0.03556899    -0.08560
C1501       C  0.90396014  0.26430024  0.97957570     0.04970
C1502       C  0.87832991  0.26533977  0.95072557    -0.03590
Br1503     Br  0.87797517  0.26592270  0.87456571    -0.03280
H1504       H  0.83063731  0.26247275  0.95541655     0.08880
H1505       H  0.92103190  0.26140136  0.05925233     0.06900
Br1506     Br  0.87930014  0.26438629  0.13824382    -0.03710
C1507       C  0.64112308  0.25768850  0.97142309    -0.10340
C1508       C  0.66260879  0.25632914  0.00944128     0.05850
C1509       C  0.65175161  0.24833726  0.06312599    -0.04110
C1510       C  0.62040522  0.24342898  0.07804951    -0.08560
C1511       C  0.59965888  0.24640511  0.04002800     0.04970
C1512       C  0.61036460  0.25335363  0.98605321    -0.03590
Br1513     Br  0.58422541  0.25796623  0.92947487    -0.03280
H1514       H  0.64870668  0.26315673  0.93003052     0.08880
H1515       H  0.61309078  0.23905632  0.11956789     0.06900
Br1516     Br  0.67836793  0.24366912  0.11771729    -0.03710
C1517       C  0.83300740  0.38704655  0.57474224    -0.10340
C1518       C  0.83701653  0.36035074  0.57905291     0.05850
C1519       C  0.86899293  0.36479062  0.58876335    -0.04110
C1520       C  0.89606951  0.39469605  0.58508822    -0.08560
C1521       C  0.89253057  0.42116426  0.57249518     0.04970
C1522       C  0.86045116  0.41728256  0.57186375    -0.03590
Br1523     Br  0.85333928  0.45236349  0.56462054    -0.03280
H1524       H  0.80866793  0.38445262  0.57010538     0.08880
H1525       H  0.92041543  0.39691647  0.58869439     0.06900
Br1526     Br  0.87782215  0.33101213  0.60490646    -0.03710
C1527       C  0.66115752  0.12194793  0.43895169    -0.10340
C1528       C  0.66208485  0.15015096  0.44866400     0.05850
C1529       C  0.63181619  0.15024996  0.45098748    -0.04110
C1530       C  0.60192744  0.12242858  0.45528849    -0.08560
C1531       C  0.60136304  0.09411105  0.45097197     0.04970
C1532       C  0.63081694  0.09431189  0.43770428    -0.03590
Br1533     Br  0.62975454  0.05784445  0.41347888    -0.03280
H1534       H  0.68387212  0.12127704  0.43307456     0.08880
H1535       H  0.57910805  0.12297024  0.46075426     0.06900
Br1536     Br  0.62957621  0.18708824  0.43599161    -0.03710
C1537       C  0.90604538  0.03571172  0.42157865    -0.10340
C1538       C  0.90558928  0.50764560  0.41113164     0.05850
C1539       C  0.87784496  0.48516923  0.38485849    -0.04110
C1540       C  0.84879595  0.48736707  0.38222678    -0.08560
C1541       C  0.84722259  0.51236811  0.40404179     0.04970
C1542       C  0.87737041  0.03857195  0.41573696    -0.03590
Br1543     Br  0.88060488  0.07864746  0.42007040    -0.03280
H1544       H  0.92812592  0.05495089  0.43657902     0.08880
H1545       H  0.82678532  0.46829419  0.36667130     0.06900
Br1546     Br  0.87858032  0.45140047  0.35187222    -0.03710
C1547       C  0.59884012  0.97774404  0.49998651    -0.10340
C1548       C  0.58450286  0.98359231  0.54307252     0.05850
C1549       C  0.60046473  0.98888819  0.59291117    -0.04110
C1550       C  0.63167158  0.99035662  0.59676757    -0.08560
C1551       C  0.64767401  0.98976106  0.55019560     0.04970
C1552       C  0.63134291  0.98574458  0.50128084    -0.03590
Br1553     Br  0.65415257  0.00219401  0.43436123    -0.03280
H1554       H  0.58709492  0.97335941  0.46138343     0.08880
H1555       H  0.64409940  0.99398816  0.63462547     0.06900
Br1556     Br  0.58222407  0.49636688  0.65447438    -0.03710
C1557       C  0.52832840  0.40794037  0.50440948    -0.10340
C1558       C  0.51110166  0.40930263  0.45878503     0.05850
C1559       C  0.99071451  0.38130096  0.43442288    -0.04110
C1560       C  0.98803692  0.35322425  0.45546469    -0.08560
C1561       C  0.50565824  0.35193445  0.50078537     0.04970
C1562       C  0.52700260  0.38019779  0.52406084    -0.03590
Br1563     Br  0.55381179  0.38258705  0.58432921    -0.03280
H1564       H  0.54114135  0.42805695  0.52741021     0.08880
H1565       H  0.97253549  0.33233024  0.43543686     0.06900
Br1566     Br  0.96404625  0.38006063  0.37457434    -0.03710
C1567       C  0.50725380  0.14175033  0.47192812    -0.10340
C1568       C  0.00455380  0.15623491  0.51657268     0.05850
C1569       C  0.99987375  0.14042091  0.56757574    -0.04110
C1570       C  0.99441377  0.11012391  0.57178918    -0.08560
C1571       C  0.99538449  0.09524905  0.52719265     0.04970
C1572       C  0.50333644  0.11162943  0.47707776    -0.03590
Br1573     Br  0.50703642  0.09334676  0.41399189    -0.03280
H1574       H  0.51092995  0.15319876  0.43283164     0.08880
H1575       H  0.98978885  0.09812763  0.61059725     0.06900
Br1576     Br  0.99979902  0.15741449  0.63487396    -0.03710
C1577       C  0.53417807  0.03229392  0.71738561    -0.10340
C1578       C  0.01023212  0.50964981  0.68578937     0.05850
C1579       C  0.98780960  0.48065813  0.71039002    -0.04110
C1580       C  0.98725653  0.47627979  0.76573692    -0.08560
C1581       C  0.00917383  0.00009608  0.79763155     0.04970
C1582       C  0.53417497  0.02766225  0.77251129    -0.03590
Br1583     Br  0.56924071  0.06007603  0.81038284    -0.03280
H1584       H  0.55274791  0.05416327  0.69931959     0.08880
H1585       H  0.96845900  0.45457430  0.78393671     0.06900
Br1586     Br  0.95797060  0.44556855  0.67177479    -0.03710
C1587       C  0.52106481  0.00452556  0.21493383    -0.10340
C1588       C  0.49463674  0.00097224  0.18263401     0.05850
C1589       C  0.96263161  0.48728707  0.20582054    -0.04110
C1590       C  0.95820460  0.47876180  0.26050688    -0.08560
C1591       C  0.48504658  0.98318363  0.29241663     0.04970
C1592       C  0.51653228  0.99558538  0.26869164    -0.03590
Br1593     Br  0.55484552  0.00130841  0.30806984    -0.03280
H1594       H  0.54561770  0.01385009  0.19823168     0.08880
H1595       H  0.93410456  0.46996216  0.27839828     0.06900
Br1596     Br  0.92428074  0.48088655  0.16616976    -0.03710
C1597       C  0.88093225  0.34383708  0.03481970    -0.10340
C1598       C  0.86233489  0.34299588  0.98939745     0.05850
C1599       C  0.86982525  0.37109112  0.96177123    -0.04110
C1600       C  0.89318783  0.39915418  0.98245624    -0.08560
C1601       C  0.90894592  0.39991899  0.03139096     0.04970
C1602       C  0.90223749  0.37164110  0.05774987    -0.03590
Br1603     Br  0.91632719  0.36864393  0.12902389    -0.03280
H1604       H  0.87509921  0.32264878  0.05770649     0.08880
H1605       H  0.89824845  0.42053237  0.96068367     0.06900
Br1606     Br  0.84597266  0.37269708  0.89982929    -0.03710
C1607       C  0.63296668  0.15510238  0.96478615    -0.10340
C1608       C  0.64791393  0.15101905  0.01184679     0.05850
C1609       C  0.63446380  0.12150583  0.03737420    -0.04110
C1610       C  0.60729643  0.09678528  0.01535657    -0.08560
C1611       C  0.59277354  0.10055566  0.96769996     0.04970
C1612       C  0.60576319  0.13009592  0.94246869    -0.03590
Br1613     Br  0.58892893  0.13668058  0.87585099    -0.03280
H1614       H  0.64332458  0.17761817  0.94383003     0.08880
H1615       H  0.59745204  0.07430082  0.03617128     0.06900
Br1616     Br  0.65139938  0.11358961  0.10296589    -0.03710
C1617       C  0.88197244  0.48530883  0.89527406    -0.10340
C1618       C  0.90903162  0.51537798  0.89849585     0.05850
C1619       C  0.90270461  0.04054336  0.89861838    -0.04110
C1620       C  0.87037309  0.03476346  0.90758466    -0.08560
C1621       C  0.84387822  0.50414108  0.91377069     0.04970
C1622       C  0.84966112  0.47949553  0.90197587    -0.03590
Br1623     Br  0.81564612  0.43693440  0.89847345    -0.03280
H1624       H  0.88599630  0.46565234  0.89095971     0.08880
H1625       H  0.86632917  0.05433342  0.91265782     0.06900
Br1626     Br  0.93667908  0.08281858  0.88805372    -0.03710
C1627       C  0.62433225  0.46317634  0.05097072    -0.10340
C1628       C  0.65251649  0.99132051  0.05867011     0.05850
C1629       C  0.64964952  0.01415668  0.08594426    -0.04110
C1630       C  0.61825818  0.01006651  0.09788956    -0.08560
C1631       C  0.58932224  0.98315076  0.08402992     0.04970
C1632       C  0.59318877  0.45884385  0.06421132    -0.03590
Br1633     Br  0.55771259  0.41970199  0.05025655    -0.03280
H1634       H  0.62642976  0.44491950  0.03220422     0.08880
H1635       H  0.61643647  0.02934810  0.11307626     0.06900
Br1636     Br  0.68753198  0.05242588  0.10316618    -0.03710
C1637       C  0.98258561  0.38250677  0.05635976    -0.10340
C1638       C  0.98003723  0.39079396  0.00256087     0.05850
C1639       C  0.47397291  0.36924540  0.96444807    -0.04110
C1640       C  0.47787392  0.34353477  0.97838806    -0.08560
C1641       C  0.48415044  0.33657708  0.03096615     0.04970
C1642       C  0.98460540  0.35557782  0.07071449    -0.03590
Br1643     Br  0.99113732  0.34722452  0.14376426    -0.03280
H1644       H  0.98579927  0.39831114  0.08701905     0.08880
H1645       H  0.47976280  0.33161519  0.94584496     0.06900
Br1646     Br  0.46483384  0.37574825  0.89154290    -0.03710
C1647       C  0.96863503  0.12162868  0.99999896    -0.10340
C1648       C  0.99795183  0.14893301  0.98475573     0.05850
C1649       C  0.52756091  0.14756738  0.98760905    -0.04110
C1650       C  0.52785449  0.12045222  0.00606915    -0.08560
C1651       C  0.49874925  0.09292080  0.02004074     0.04970
C1652       C  0.96874974  0.09386325  0.01704090    -0.03590
Br1653     Br  0.92751106  0.05848793  0.03803124    -0.03280
H1654       H  0.94548882  0.12194970  0.99968579     0.08880
H1655       H  0.55126413  0.12070574  0.00706057     0.06900
Br1656     Br  0.56840312  0.18106355  0.96245724    -0.03710
O1657       O  0.52902935  0.56546932  0.03609153    -0.81330
O1658       O  0.94007930  0.95513918  0.02258148    -0.81350
O1659       O  0.96895836  0.54286933  0.90474670    -0.81360
O1660       O  0.47915967  0.99467304  0.09167574    -0.81300
O1661       O  0.94121934  0.99289260  0.93024642    -0.81420
O1662       O  0.53084895  0.52240309  0.10744255    -0.81340
O1663       O  0.95661342  0.93250860  0.08338008    -0.81330
O1664       O  0.97869310  0.53862404  0.00958204    -0.81360
C1665       C  0.50097278  0.56349633  0.02724294     1.08360
C1666       C  0.93459105  0.93033729  0.04979755     1.08250
C1667       C  0.94169669  0.51779950  0.91061323     1.08390
C1668       C  0.50141348  0.00807518  0.12467912     1.08260
O1669       O  0.56667631  0.50808460  0.03194724    -0.81330
O1670       O  0.98161690  0.97249772  0.87814583    -0.81400
O1671       O  0.53644155  0.57105379  0.93864064    -0.81340
O1672       O  0.50591216  0.94436684  0.01350628    -0.81320
O1673       O  0.96695906  0.92738465  0.95753416    -0.81370
O1674       O  0.56367427  0.54759023  0.95942007    -0.81340
O1675       O  0.53175161  0.97342204  0.08989959    -0.81300
O1676       O  0.01163464  0.52266926  0.87891792    -0.81370
Co1677     Co  0.54570199  0.53406814  0.03094126     1.51530
Co1678     Co  0.96282485  0.96615785  0.95102917     1.51690
Co1679     Co  0.99441949  0.52833462  0.94541300     1.51570
Co1680     Co  0.49118500  0.96981876  0.04800683     1.51470
O1681       O  0.50807221  0.50097686  0.98800656    -1.43260
C1682       C  0.56070059  0.98765218  0.06848901     1.08290
C1683       C  0.00129917  0.49807316  0.85493862     1.08380
C1684       C  0.56420534  0.57256630  0.94780612     1.08320
C1685       C  0.98545605  0.92238965  0.98835939     1.08290
O1686       O  0.50242863  0.50660219  0.37222599    -0.81330
O1687       O  0.96324249  0.54171840  0.55550378    -0.81350
O1688       O  0.92603139  0.97269995  0.44015767    -0.81360
O1689       O  0.56649381  0.55224003  0.51009746    -0.81300
O1690       O  0.95653969  0.52215305  0.45507594    -0.81420
O1691       O  0.54977839  0.55078974  0.42861065    -0.81340
O1692       O  0.51239665  0.55740500  0.51957840    -0.81330
O1693       O  0.96537085  0.95755596  0.37945384    -0.81360
C1694       C  0.48288076  0.48214109  0.35084029     1.08360
C1695       C  0.48997984  0.56342973  0.53516106     1.08250
C1696       C  0.93139801  0.00069321  0.43434268     1.08390
C1697       C  0.57085920  0.56471952  0.46373747     1.08260
O1698       O  0.56291333  0.50424272  0.47968789    -0.81330
O1699       O  0.92563554  0.97665231  0.54223260    -0.81400
O1700       O  0.98085149  0.93325478  0.47748581    -0.81340
O1701       O  0.53643073  0.53819563  0.60589554    -0.81320
O1702       O  0.98469893  0.00162426  0.59878776    -0.81370
O1703       O  0.52027120  0.95933174  0.41850533    -0.81340
O1704       O  0.53690589  0.49042435  0.55705510    -0.81300
O1705       O  0.94531002  0.94602591  0.53488251    -0.81370
Co1706     Co  0.53147838  0.50500882  0.42682461     1.51530
Co1707     Co  0.97215952  0.01233272  0.52306586     1.51690
Co1708     Co  0.95621297  0.95442625  0.45948551     1.51570
Co1709     Co  0.52170352  0.52106735  0.53879525     1.51470
O1710       O  0.49527471  0.49503655  0.47953264    -1.43260
C1711       C  0.55942556  0.49241623  0.52681446     1.08290
C1712       C  0.92237179  0.94973018  0.55087236     1.08380
C1713       C  0.50452793  0.93583479  0.45094828     1.08320
C1714       C  0.51028413  0.01707927  0.62793411     1.08290
O1715       O  0.94797671  0.70111795  0.04276214    -0.81330
O1716       O  0.52484141  0.82082448  0.04558734    -0.81350
O1717       O  0.48635499  0.73956812  0.10308943    -0.81360
O1718       O  0.95378402  0.78258456  0.92713723    -0.81300
O1719       O  0.53434126  0.77860573  0.11564519    -0.81420
O1720       O  0.93547981  0.73873808  0.97465914    -0.81340
O1721       O  0.47619630  0.78533722  0.02882080    -0.81330
O1722       O  0.97471660  0.68053332  0.08524153    -0.81360
C1723       C  0.94767499  0.67718098  0.06493676     1.08360
C1724       C  0.49467953  0.81263488  0.04077735     1.08250
C1725       C  0.50712424  0.75752385  0.13448916     1.08390
C1726       C  0.93101254  0.76091341  0.95517751     1.08260
O1727       O  0.97119601  0.72582736  0.88870944    -0.81330
O1728       O  0.57465750  0.77617435  0.03528042    -0.81400
O1729       O  0.51898108  0.70214486  0.00181745    -0.81340
O1730       O  0.52574499  0.82209577  0.94376490    -0.81320
O1731       O  0.56387981  0.81110230  0.96907917    -0.81370
O1732       O  0.97380540  0.68168178  0.95958031    -0.81340
O1733       O  0.00520432  0.77462805  0.89164278    -0.81300
O1734       O  0.54606386  0.73191939  0.08068130    -0.81370
Co1735     Co  0.96315536  0.71687040  0.96817888     1.51530
Co1736     Co  0.54610179  0.79354162  0.03903163     1.51690
Co1737     Co  0.50141635  0.72132584  0.04893572     1.51570
Co1738     Co  0.98905997  0.77701182  0.96005817     1.51470
O1739       O  0.51113539  0.75563990  0.99592017    -1.43260
C1740       C  0.99099268  0.75127831  0.86523909     1.08290
C1741       C  0.57219760  0.75151811  0.05530392     1.08380
C1742       C  0.99791777  0.67941992  0.97836607     1.08320
C1743       C  0.55599996  0.82895169  0.94389446     1.08290
O1744       O  0.94165801  0.68594633  0.48779448    -0.81330
O1745       O  0.53235283  0.82272160  0.52832071    -0.81350
O1746       O  0.48486111  0.75680795  0.61393534    -0.81360
O1747       O  0.96440926  0.78213020  0.40064059    -0.81300
O1748       O  0.53816880  0.78612568  0.61411191    -0.81420
O1749       O  0.94266125  0.73594611  0.44238916    -0.81340
O1750       O  0.98040131  0.79642886  0.50450957    -0.81330
O1751       O  0.93835727  0.70736903  0.55961508    -0.81360
C1752       C  0.92672482  0.68411184  0.53062574     1.08360
C1753       C  0.50515926  0.82196284  0.51618290     1.08250
C1754       C  0.51069299  0.77287443  0.63876386     1.08390
C1755       C  0.93897261  0.75703720  0.41541805     1.08260
O1756       O  0.96777692  0.70661974  0.38535852    -0.81330
O1757       O  0.56471253  0.76222893  0.54019417    -0.81400
O1758       O  0.48522212  0.68726852  0.54899541    -0.81340
O1759       O  0.53070951  0.81386915  0.42768316    -0.81320
O1760       O  0.56145529  0.79612039  0.46016216    -0.81370
O1761       O  0.00687998  0.70207146  0.46859165    -0.81340
O1762       O  0.00419985  0.75635677  0.39012919    -0.81300
O1763       O  0.53171280  0.73121784  0.60382543    -0.81370
Co1764     Co  0.97959126  0.72340737  0.45432776     1.51530
Co1765     Co  0.54667566  0.78974404  0.53439319     1.51690
Co1766     Co  0.48555135  0.72316700  0.57841998     1.51570
Co1767     Co  0.99017307  0.77366793  0.45195464     1.51470
O1768       O  0.50283206  0.75276604  0.51272375    -1.43260
C1769       C  0.98842120  0.73227854  0.36239608     1.08290
C1770       C  0.55726611  0.74040695  0.57412473     1.08380
C1771       C  0.99999906  0.68406291  0.51055357     1.08320
C1772       C  0.55924444  0.81688926  0.43298233     1.08290
O1773       O  0.70537243  0.49525677  0.06179482    -0.81330
O1774       O  0.74532748  0.94640884  0.04490967    -0.81350
O1775       O  0.68661821  0.96455743  0.91689017    -0.81360
O1776       O  0.76680062  0.50307463  0.10442949    -0.81300
O1777       O  0.69354772  0.93688625  0.98216799    -0.81420
O1778       O  0.75672473  0.54230601  0.11093408    -0.81340
O1779       O  0.79713294  0.97718006  0.04671095    -0.81330
O1780       O  0.68922380  0.00673581  0.98453360    -0.81360
C1781       C  0.68372709  0.49742665  0.03361178     1.08360
C1782       C  0.77350429  0.95045232  0.05617931     1.08250
C1783       C  0.67614728  0.93962025  0.94543844     1.08390
C1784       C  0.76089866  0.52089972  0.13303683     1.08260
O1785       O  0.80107908  0.55924207  0.03243866    -0.81330
O1786       O  0.73574777  0.95780238  0.89015690    -0.81400
O1787       O  0.75329419  0.55241696  0.93414328    -0.81340
O1788       O  0.81255405  0.52126817  0.96137475    -0.81320
O1789       O  0.78917592  0.97102301  0.94922924    -0.81370
O1790       O  0.73946904  0.55532283  0.01433700    -0.81340
O1791       O  0.82834953  0.53619246  0.06565873    -0.81300
O1792       O  0.75104304  0.00742232  0.87511462    -0.81370
Co1793     Co  0.75198999  0.52431438  0.04489087     1.51530
Co1794     Co  0.74096301  0.95484318  0.96900748     1.51690
Co1795     Co  0.72210615  0.00788517  0.93056645     1.51570
Co1796     Co  0.78867479  0.51269655  0.02924704     1.51470
O1797       O  0.74762721  0.49698963  0.98530874    -1.43260
C1798       C  0.82748269  0.56086177  0.05395564     1.08290
C1799       C  0.74747095  0.98203198  0.85961894     1.08380
C1800       C  0.74632407  0.56641292  0.96726193     1.08320
C1801       C  0.81301086  0.99864020  0.94059651     1.08290
O1802       O  0.70597926  0.51198068  0.57164765    -0.81330
O1803       O  0.74792753  0.94319058  0.51940808    -0.81350
O1804       O  0.68321051  0.96182862  0.41243647    -0.81360
O1805       O  0.77082526  0.48811426  0.59999746    -0.81300
O1806       O  0.69577631  0.93461591  0.46698351    -0.81420
O1807       O  0.75516652  0.51972585  0.63199434    -0.81340
O1808       O  0.80002668  0.97267656  0.52249714    -0.81330
O1809       O  0.68478441  0.47881515  0.51206441    -0.81360
C1810       C  0.68069269  0.49291000  0.54769827     1.08360
C1811       C  0.77562273  0.94532946  0.52341837     1.08250
C1812       C  0.67605121  0.93555787  0.43347511     1.08390
C1813       C  0.76406344  0.49947914  0.63983546     1.08260
O1814       O  0.79364513  0.55369401  0.55342692    -0.81330
O1815       O  0.73806628  0.97514748  0.37737386    -0.81400
O1816       O  0.72615599  0.54580783  0.47843020    -0.81340
O1817       O  0.81350243  0.52638311  0.45603764    -0.81320
O1818       O  0.79069388  0.97931741  0.42652066    -0.81370
O1819       O  0.76525737  0.55634874  0.53800337    -0.81340
O1820       O  0.82876799  0.53502116  0.56131580    -0.81300
O1821       O  0.73859344  0.02036562  0.38606889    -0.81370
Co1822     Co  0.74897379  0.51120072  0.55936235     1.51530
Co1823     Co  0.74290827  0.95933272  0.45012083     1.51690
Co1824     Co  0.71126476  0.00246106  0.44994742     1.51570
Co1825     Co  0.78984778  0.50886902  0.52493073     1.51470
O1826       O  0.74708204  0.49604598  0.48532746    -1.43260
C1827       C  0.82354158  0.55808023  0.56233031     1.08290
C1828       C  0.74248167  0.00148939  0.35821310     1.08380
C1829       C  0.74681988  0.56449881  0.51112998     1.08320
C1830       C  0.81505660  0.00676479  0.42708455     1.08290
O1831       O  0.68522886  0.70375395  0.01387604    -0.81330
O1832       O  0.77588423  0.81859639  0.07500906    -0.81350
O1833       O  0.73664940  0.71777408  0.12618675    -0.81360
O1834       O  0.72059640  0.77530742  0.01806313    -0.81300
O1835       O  0.76904240  0.76799343  0.12453124    -0.81420
O1836       O  0.69806577  0.75144873  0.94814799    -0.81340
O1837       O  0.77313991  0.83068491  0.98987774    -0.81330
O1838       O  0.70276542  0.67378963  0.04700803    -0.81360
C1839       C  0.67919015  0.67731258  0.02893562     1.08360
C1840       C  0.77655176  0.83803181  0.03863400     1.08250
C1841       C  0.75194298  0.74289120  0.15035084     1.08390
C1842       C  0.69523467  0.76192832  0.99089092     1.08260
O1843       O  0.74307853  0.73892018  0.89041352    -0.81330
O1844       O  0.81091906  0.77842814  0.06024254    -0.81400
O1845       O  0.76379002  0.69212199  0.99651940    -0.81340
O1846       O  0.80949920  0.80558362  0.95150945    -0.81320
O1847       O  0.81561467  0.80468034  0.03539075    -0.81370
O1848       O  0.72132062  0.68412487  0.94546070    -0.81340
O1849       O  0.75216966  0.78608438  0.90487061    -0.81300
O1850       O  0.79781233  0.72891891  0.07312935    -0.81370
Co1851     Co  0.71443446  0.72085195  0.95255313     1.51530
Co1852     Co  0.76654859  0.77789113  0.04898225     1.51690
Co1853     Co  0.75045669  0.70672738  0.05743060     1.51570
Co1854     Co  0.76434433  0.78752761  0.98442457     1.51470
O1855       O  0.75431659  0.74220307  0.00173041    -1.43260
C1856       C  0.75137218  0.76609972  0.87312246     1.08290
C1857       C  0.81850402  0.75651322  0.06044864     1.08380
C1858       C  0.74411486  0.67819240  0.95974870     1.08320
C1859       C  0.82835634  0.81697409  0.98988236     1.08290
O1860       O  0.72022340  0.68497389  0.43595235    -0.81330
O1861       O  0.73576224  0.80434627  0.47107466    -0.81350
O1862       O  0.69028946  0.72011690  0.58952878    -0.81360
O1863       O  0.78229589  0.78047789  0.39795244    -0.81300
O1864       O  0.69206244  0.75382178  0.52863132    -0.81420
O1865       O  0.73063373  0.74368518  0.40845535    -0.81340
O1866       O  0.78858138  0.82899772  0.45827794    -0.81330
O1867       O  0.69512015  0.69548779  0.49886552    -0.81360
C1868       C  0.69393822  0.67810029  0.46103421     1.08360
C1869       C  0.76157843  0.82938126  0.46053529     1.08250
C1870       C  0.67604828  0.73336249  0.56451176     1.08390
C1871       C  0.75421377  0.76207258  0.37798787     1.08260
O1872       O  0.78461795  0.73183074  0.42823896    -0.81330
O1873       O  0.73573321  0.77328897  0.61845848    -0.81400
O1874       O  0.72133433  0.68043166  0.58484476    -0.81340
O1875       O  0.81689864  0.81061683  0.54285137    -0.81320
O1876       O  0.78003277  0.82472939  0.56133863    -0.81370
O1877       O  0.75969847  0.70221570  0.52283991    -0.81340
O1878       O  0.81593474  0.76492854  0.48478729    -0.81300
O1879       O  0.75802090  0.74262513  0.61918621    -0.81370
Co1880     Co  0.74346482  0.72432785  0.46796096     1.51530
Co1881     Co  0.73626139  0.78722999  0.54243651     1.51690
Co1882     Co  0.73086954  0.72125765  0.55585494     1.51570
Co1883     Co  0.79835457  0.79378036  0.47335827     1.51470
O1884       O  0.75525285  0.76206508  0.51113921    -1.43260
C1885       C  0.81302468  0.74803745  0.44724799     1.08290
C1886       C  0.75047460  0.76056269  0.64333291     1.08380
C1887       C  0.74245406  0.67885503  0.55494763     1.08320
C1888       C  0.80967155  0.82961864  0.56291036     1.08290
C1889       C  0.73771505  0.77831187  0.72703821    -0.10340
C1890       C  0.75533995  0.76561316  0.70208644     0.05850
C1891       C  0.77566167  0.75780708  0.73444651    -0.04110
C1892       C  0.77623486  0.76087885  0.78985385    -0.08560
C1893       C  0.75721251  0.77201657  0.81462280     0.04970
C1894       C  0.73835313  0.78134938  0.78224019    -0.03590
Br1895     Br  0.70973858  0.79467201  0.81189648    -0.03280
H1896       H  0.72187865  0.78472494  0.70387070     0.08880
H1897       H  0.79069130  0.75325956  0.81421773     0.06900
Br1898     Br  0.80299400  0.74267523  0.70609446    -0.03710
C1899       C  0.72148944  0.73508960  0.23739713    -0.10340
C1900       C  0.75111322  0.74447436  0.20950320     0.05850
C1901       C  0.78092613  0.76058738  0.23733737    -0.04110
C1902       C  0.78104477  0.76676689  0.29087937    -0.08560
C1903       C  0.75172339  0.75784158  0.31907763     0.04970
C1904       C  0.72158375  0.74205296  0.29125782    -0.03590
Br1905     Br  0.68006312  0.73185709  0.32277374    -0.03280
H1906       H  0.69826258  0.72349197  0.21682655     0.08880
H1907       H  0.80458117  0.77834864  0.31075430     0.06900
Br1908     Br  0.82290270  0.77475478  0.20459540    -0.03710
C1909       C  0.74682706  0.86019616  0.51792417    -0.10340
C1910       C  0.76311122  0.85918776  0.47213872     0.05850
C1911       C  0.78595295  0.88725714  0.44633050    -0.04110
C1912       C  0.79308557  0.91572508  0.46716387    -0.08560
C1913       C  0.77709517  0.91676205  0.51334294     0.04970
C1914       C  0.75380417  0.88847888  0.53865193    -0.03590
Br1915     Br  0.73143757  0.88742620  0.60281960    -0.03280
H1916       H  0.72973030  0.83886285  0.53935249     0.08880
H1917       H  0.80975455  0.93699856  0.44572748     0.06900
Br1918     Br  0.80473539  0.88689327  0.37954962    -0.03710
C1919       C  0.71657861  0.62176185  0.54884043    -0.10340
C1920       C  0.74547922  0.64999513  0.55144255     0.05850
C1921       C  0.77548310  0.65043615  0.53978181    -0.04110
C1922       C  0.77600732  0.62288081  0.52721280    -0.08560
C1923       C  0.74656357  0.59445375  0.52282567     0.04970
C1924       C  0.71679234  0.59488972  0.53372341    -0.03590
Br1925     Br  0.67436243  0.56034456  0.52913992    -0.03280
H1926       H  0.69314086  0.62094986  0.55556798     0.08880
H1927       H  0.79939380  0.62396823  0.51917497     0.06900
Br1928     Br  0.81612024  0.68850355  0.54046623    -0.03710
C1929       C  0.78512146  0.50346960  0.78282076    -0.10340
C1930       C  0.75491775  0.98046119  0.80416058     0.05850
C1931       C  0.73065584  0.95942845  0.77045508    -0.04110
C1932       C  0.73580811  0.96360620  0.71555068    -0.08560
C1933       C  0.76474222  0.48848462  0.69420606     0.04970
C1934       C  0.79018151  0.50757764  0.72801125    -0.03590
Br1935     Br  0.83073848  0.54154438  0.70089801    -0.03280
H1936       H  0.80398693  0.51948005  0.80866063     0.08880
H1937       H  0.71596287  0.94926889  0.68943689     0.06900
Br1938     Br  0.68811815  0.92804379  0.79609133    -0.03710
C1939       C  0.73494893  0.98192921  0.26870345    -0.10340
C1940       C  0.74853939  0.00764780  0.30089497     0.05850
C1941       C  0.76705535  0.53774405  0.27741317    -0.04110
C1942       C  0.77104150  0.54153231  0.22229902    -0.08560
C1943       C  0.75724825  0.51571645  0.19047107     0.04970
C1944       C  0.73915686  0.98569028  0.21393991    -0.03590
Br1945     Br  0.71736971  0.94915015  0.17345827    -0.03280
H1946       H  0.72024233  0.95864071  0.28607977     0.08880
H1947       H  0.78526513  0.56470762  0.20419356     0.06900
Br1948     Br  0.78885705  0.57413672  0.31813369    -0.03710
C1949       C  0.80753462  0.89511652  0.04654228    -0.10340
C1950       C  0.77819862  0.86698928  0.05321094     0.05850
C1951       C  0.74969587  0.86674913  0.07159941    -0.04110
C1952       C  0.74993989  0.89462392  0.07847019    -0.08560
C1953       C  0.77827392  0.92315529  0.06675161     0.04970
C1954       C  0.80802830  0.92327713  0.05409778    -0.03590
Br1955     Br  0.84966621  0.96048299  0.04373750    -0.03280
H1956       H  0.82980118  0.89520836  0.03394293     0.08880
H1957       H  0.72705366  0.89389881  0.08926488     0.06900
Br1958     Br  0.70875450  0.82910808  0.08263510    -0.03710
C1959       C  0.77355547  0.62167255  0.93795887    -0.10340
C1960       C  0.74441083  0.59427001  0.95084293     0.05850
C1961       C  0.71415434  0.59455040  0.95125557    -0.04110
C1962       C  0.71412009  0.62271663  0.94649720    -0.08560
C1963       C  0.74385552  0.65055030  0.94130066     0.04970
C1964       C  0.77336598  0.64987140  0.93289574    -0.03590
Br1965     Br  0.81383083  0.68694567  0.91656178    -0.03280
H1966       H  0.79668914  0.62139945  0.93504857     0.08880
H1967       H  0.69110218  0.62296424  0.95185907     0.06900
Br1968     Br  0.67214782  0.55784544  0.95924237    -0.03710
C1969       C  0.90759669  0.62792659  0.54054761    -0.10340
C1970       C  0.90151422  0.65249619  0.55020535     0.05850
C1971       C  0.87261713  0.64551627  0.57829418    -0.04110
C1972       C  0.84698113  0.61446124  0.58319578    -0.08560
C1973       C  0.85190759  0.58995696  0.56738289     0.04970
C1974       C  0.88422499  0.59715401  0.55272667    -0.03590
Br1975     Br  0.89930221  0.56708254  0.55041485    -0.03280
H1976       H  0.93114743  0.63266496  0.52437053     0.08880
H1977       H  0.82356403  0.60939873  0.60042636     0.06900
Br1978     Br  0.86921186  0.67663463  0.61551037    -0.03710
C1979       C  0.64898082  0.87861814  0.42903899    -0.10340
C1980       C  0.64666122  0.90575822  0.41937951     0.05850
C1981       C  0.61616002  0.90249200  0.40092335    -0.04110
C1982       C  0.58798571  0.87297005  0.40181922    -0.08560
C1983       C  0.58985945  0.84615267  0.41768755     0.04970
C1984       C  0.62147715  0.84922814  0.42712980    -0.03590
Br1985     Br  0.62979748  0.81489052  0.43949927    -0.03280
H1986       H  0.67247394  0.88018939  0.43963881     0.08880
H1987       H  0.56430189  0.87118421  0.39208178     0.06900
Br1988     Br  0.61037264  0.93627814  0.37367757    -0.03710
C1989       C  0.90190948  0.78027695  0.40574908    -0.10340
C1990       C  0.90531038  0.75348519  0.40891932     0.05850
C1991       C  0.87625325  0.72419934  0.41302500    -0.04110
C1992       C  0.84540838  0.72254239  0.41980158    -0.08560
C1993       C  0.84313057  0.74957780  0.42492232     0.04970
C1994       C  0.87142385  0.77859751  0.41461564    -0.03590
Br1995     Br  0.86996141  0.81689108  0.41334670    -0.03280
H1996       H  0.92326183  0.80288730  0.39964475     0.08880
H1997       H  0.82354095  0.70006098  0.42476810     0.06900
Br1998     Br  0.87684298  0.68562880  0.41068060    -0.03710
C1999       C  0.59491029  0.72325248  0.62328430    -0.10340
C2000       C  0.58048108  0.72747906  0.57585605     0.05850
C2001       C  0.59531046  0.72772169  0.52710092    -0.04110
C2002       C  0.62560884  0.72901632  0.52645901    -0.08560
C2003       C  0.64101256  0.72576891  0.57239673     0.04970
C2004       C  0.62482593  0.72177316  0.62171304    -0.03590
Br2005     Br  0.64500502  0.71922347  0.68735833    -0.03280
H2006       H  0.58450929  0.72349664  0.66129407     0.08880
H2007       H  0.63853248  0.73519429  0.48883157     0.06900
Br2008     Br  0.57898855  0.73104811  0.45767308    -0.03710
C2009       C  0.00180617  0.78436924  0.78311059    -0.10340
C2010       C  0.99646979  0.75578989  0.80711597     0.05850
C2011       C  0.49763574  0.73374808  0.77535900    -0.04110
C2012       C  0.50372761  0.74049152  0.72066569    -0.08560
C2013       C  0.50892034  0.76903580  0.69699691     0.04970
C2014       C  0.00771840  0.79095217  0.72859724    -0.03590
Br2015     Br  0.01200161  0.82921749  0.69870503    -0.03280
H2016       H  0.00070623  0.80157833  0.80680155     0.08880
H2017       H  0.50386047  0.72308832  0.69635663     0.06900
Br2018     Br  0.49246568  0.69494383  0.80462928    -0.03710
C2019       C  0.96673408  0.72297879  0.27048804    -0.10340
C2020       C  0.99405257  0.73599608  0.30411690     0.05850
C2021       C  0.52529973  0.75671112  0.28165628    -0.04110
C2022       C  0.52863150  0.76411770  0.22691922    -0.08560
C2023       C  0.50130664  0.75140089  0.19301200     0.04970
C2024       C  0.96992079  0.73060464  0.21567838    -0.03590
Br2025     Br  0.92981290  0.71298489  0.17552587    -0.03280
H2026       H  0.94241849  0.70790205  0.28730853     0.08880
H2027       H  0.55302435  0.77952628  0.21072509     0.06900
Br2028     Br  0.56477187  0.77482004  0.32320720    -0.03710
C2029       C  0.90968427  0.62382126  0.10290865    -0.10500
C2030       C  0.91668997  0.64733393  0.06353665     0.05850
C2031       C  0.89332763  0.64198299  0.02240585    -0.04110
C2032       C  0.86405472  0.61417876  0.02194259    -0.08560
C2033       C  0.85731036  0.59070083  0.06047065     0.04970
C2034       C  0.88015687  0.59560815  0.10180955    -0.03590
Br2035     Br  0.87170850  0.56544369  0.15916958    -0.03280
H2036       H  0.92697141  0.62748710  0.13480960     0.08880
H2037       H  0.84694044  0.61036460  0.98962980     0.06900
Br2038     Br  0.89930075  0.66928713  0.96159004    -0.03710
C2039       C  0.61423648  0.85751858  0.91734169    -0.10340
C2040       C  0.58426256  0.85809514  0.92157120     0.05850
C2041       C  0.58562991  0.88727143  0.92053891    -0.04110
C2042       C  0.61607282  0.91426295  0.92575598    -0.08560
C2043       C  0.64513260  0.91234211  0.93187029     0.04970
C2044       C  0.64433167  0.88397587  0.92431549    -0.03590
Br2045     Br  0.68329169  0.87947732  0.92563372    -0.03280
H2046       H  0.61420050  0.83563610  0.91477270     0.08880
H2047       H  0.61682907  0.93648263  0.92778248     0.06900
Br2048     Br  0.54762299  0.89200395  0.91165810    -0.03710
C2049       C  0.85123656  0.76375318  0.97817659    -0.10340
C2050       C  0.84978584  0.76240677  0.03442770     0.05850
C2051       C  0.87639940  0.76315662  0.06272863    -0.04110
C2052       C  0.90237837  0.76318891  0.03556041    -0.08560
C2053       C  0.90395920  0.76430654  0.97956795     0.04970
C2054       C  0.87832586  0.76534148  0.95071972    -0.03590
Br2055     Br  0.87796901  0.76592258  0.87456004    -0.03280
H2056       H  0.83063008  0.76246796  0.95541512     0.08880
H2057       H  0.92103636  0.76141626  0.05924324     0.06900
Br2058     Br  0.87931874  0.76441414  0.13823286    -0.03710
C2059       C  0.64111852  0.75768735  0.97141927    -0.10340
C2060       C  0.66260473  0.75632914  0.00943782     0.05850
C2061       C  0.65174712  0.74833669  0.06312210    -0.04110
C2062       C  0.62039997  0.74342643  0.07804528    -0.08560
C2063       C  0.59965297  0.74640122  0.04002368     0.04970
C2064       C  0.61035917  0.75335073  0.98604906    -0.03590
Br2065     Br  0.58421999  0.75796382  0.92947118    -0.03280
H2066       H  0.64870239  0.76315614  0.93002688     0.08880
H2067       H  0.61308539  0.73905340  0.11956361     0.06900
Br2068     Br  0.67836368  0.74366944  0.11771304    -0.03710
C2069       C  0.83301229  0.88704832  0.57473629    -0.10340
C2070       C  0.83702098  0.86035221  0.57904416     0.05850
C2071       C  0.86899763  0.86479172  0.58875099    -0.04110
C2072       C  0.89607439  0.89469705  0.58507545    -0.08560
C2073       C  0.89253561  0.92116559  0.57248512     0.04970
C2074       C  0.86045634  0.91728423  0.57185719    -0.03590
Br2075     Br  0.85334506  0.95236563  0.56461924    -0.03280
H2076       H  0.80867277  0.88445471  0.57010259     0.08880
H2077       H  0.92042027  0.89691714  0.58867920     0.06900
Br2078     Br  0.87782714  0.83101302  0.60488981    -0.03710
C2079       C  0.66115319  0.62194643  0.43896213    -0.10340
C2080       C  0.66208159  0.65015027  0.44867132     0.05850
C2081       C  0.63181351  0.65025049  0.45099189    -0.04110
C2082       C  0.60192410  0.62242953  0.45529564    -0.08560
C2083       C  0.60135865  0.59411113  0.45098297     0.04970
C2084       C  0.63081206  0.59431087  0.43771579    -0.03590
Br2085     Br  0.62974798  0.55784286  0.41348976    -0.03280
H2086       H  0.68386736  0.62127466  0.43308566     0.08880
H2087       H  0.57910510  0.62297221  0.46075920     0.06900
Br2088     Br  0.62957598  0.68708922  0.43598327    -0.03710
C2089       C  0.90604147  0.53571023  0.42158325    -0.10340
C2090       C  0.90559376  0.00764774  0.41112403     0.05850
C2091       C  0.87784942  0.98517161  0.38485065    -0.04110
C2092       C  0.84879975  0.98736839  0.38222254    -0.08560
C2093       C  0.84722613  0.01236878  0.40403981     0.04970
C2094       C  0.87736695  0.53857106  0.41573909    -0.03590
Br2095     Br  0.88060210  0.57864705  0.42006894    -0.03280
H2096       H  0.92812210  0.55494951  0.43658318     0.08880
H2097       H  0.82678902  0.96829528  0.36666779     0.06900
Br2098     Br  0.87858599  0.95140495  0.35185861    -0.03710
C2099       C  0.59883378  0.47774161  0.49999563    -0.10340
C2100       C  0.58449825  0.48359129  0.54308235     0.05850
C2101       C  0.60046212  0.48888888  0.59291934    -0.04110
C2102       C  0.63166920  0.49035759  0.59677318    -0.08560
C2103       C  0.64766991  0.48976085  0.55019997     0.04970
C2104       C  0.63133686  0.48574290  0.50128688    -0.03590
Br2105     Br  0.65414436  0.50219178  0.43436548    -0.03280
H2106       H  0.58708712  0.47335605  0.46139372     0.08880
H2107       H  0.64409859  0.49399054  0.63462979     0.06900
Br2108     Br  0.58222413  0.99636370  0.65446569    -0.03710
C2109       C  0.52833311  0.90794163  0.50439660    -0.10340
C2110       C  0.51110422  0.90930254  0.45877418     0.05850
C2111       C  0.99071407  0.88129982  0.43441727    -0.04110
C2112       C  0.98803560  0.85322338  0.45546226    -0.08560
C2113       C  0.50565912  0.85193491  0.50078088     0.04970
C2114       C  0.52700622  0.88019918  0.52405127    -0.03590
Br2115     Br  0.55381739  0.88259006  0.58431778    -0.03280
H2116       H  0.54114837  0.92805927  0.52739385     0.08880
H2117       H  0.97253155  0.83232846  0.43543866     0.06900
Br2118     Br  0.96404297  0.88005790  0.37457191    -0.03710
C2119       C  0.50725066  0.64174868  0.47193488    -0.10340
C2120       C  0.00454891  0.65623319  0.51657812     0.05850
C2121       C  0.99986556  0.64041858  0.56758144    -0.04110
C2122       C  0.99440497  0.61012146  0.57179583    -0.08560
C2123       C  0.99537806  0.59524696  0.52720052     0.04970
C2124       C  0.50333240  0.61162752  0.47708578    -0.03590
Br2125     Br  0.50703430  0.59334477  0.41400139    -0.03280
H2126       H  0.51092903  0.65319745  0.43283833     0.08880
H2127       H  0.98977786  0.59812483  0.61060384     0.06900
Br2128     Br  0.99978674  0.65741107  0.63487910    -0.03710
C2129       C  0.53417308  0.53229154  0.71739733    -0.10340
C2130       C  0.01023876  0.00965097  0.68577767     0.05850
C2131       C  0.98781855  0.98065836  0.71037795    -0.04110
C2132       C  0.98726524  0.97628027  0.76572503    -0.08560
C2133       C  0.00916727  0.50009437  0.79764332     0.04970
C2134       C  0.53416991  0.52765959  0.77252304    -0.03590
Br2135     Br  0.56923765  0.56007147  0.81039469    -0.03280
H2136       H  0.55274440  0.55416013  0.69933131     0.08880
H2137       H  0.96846917  0.95457395  0.78392473     0.06900
Br2138     Br  0.95798379  0.94556745  0.67176121    -0.03710
C2139       C  0.52105688  0.50452646  0.21494496    -0.10340
C2140       C  0.49462784  0.50097207  0.18264670     0.05850
C2141       C  0.96264016  0.98728850  0.20580667    -0.04110
C2142       C  0.95821195  0.97876334  0.26049302    -0.08560
C2143       C  0.48504019  0.48318305  0.29242891     0.04970
C2144       C  0.51652555  0.49558589  0.26870248    -0.03590
Br2145     Br  0.55483985  0.50130964  0.30807818    -0.03280
H2146       H  0.54560958  0.51385177  0.19824162     0.08880
H2147       H  0.93411170  0.96996463  0.27838327     0.06900
Br2148     Br  0.92429012  0.98088923  0.16615455    -0.03710
C2149       C  0.88092697  0.84384074  0.03483098    -0.10340
C2150       C  0.86233008  0.84299713  0.98940695     0.05850
C2151       C  0.86982133  0.87109086  0.96177415    -0.04110
C2152       C  0.89318533  0.89915525  0.98245344    -0.08560
C2153       C  0.90894450  0.89992291  0.03138813     0.04970
C2154       C  0.90223498  0.87164637  0.05775388    -0.03590
Br2155     Br  0.91632915  0.86865388  0.12902660    -0.03280
H2156       H  0.87509321  0.82265364  0.05772251     0.08880
H2157       H  0.89824697  0.92053229  0.96067572     0.06900
Br2158     Br  0.84596954  0.87269350  0.89982882    -0.03710
C2159       C  0.63296228  0.65510169  0.96478330    -0.10340
C2160       C  0.64790871  0.65101994  0.01184614     0.05850
C2161       C  0.63445514  0.62150886  0.03738182    -0.04110
C2162       C  0.60728578  0.59678810  0.01536890    -0.08560
C2163       C  0.59276439  0.60055637  0.96770894     0.04970
C2164       C  0.60575661  0.63009503  0.94247066    -0.03590
Br2165     Br  0.58892300  0.63667682  0.87585020    -0.03280
H2166       H  0.64332251  0.67761610  0.94382188     0.08880
H2167       H  0.59743909  0.57430507  0.03618930     0.06900
Br2168     Br  0.65138868  0.61359669  0.10297893    -0.03710
C2169       C  0.88198138  0.98531574  0.89525904    -0.10340
C2170       C  0.90904035  0.01538468  0.89848565     0.05850
C2171       C  0.90269633  0.54053718  0.89862062    -0.04110
C2172       C  0.87036486  0.53475838  0.90758335    -0.08560
C2173       C  0.84388674  0.00414568  0.91376781     0.04970
C2174       C  0.84966993  0.97950152  0.90196444    -0.03590
Br2175     Br  0.81565497  0.93694099  0.89845401    -0.03280
H2176       H  0.88600557  0.96565992  0.89093854     0.08880
H2177       H  0.86632112  0.55432898  0.91265043     0.06900
Br2178     Br  0.93667120  0.58281179  0.88804996    -0.03710
C2179       C  0.62433479  0.96316943  0.05091441    -0.10340
C2180       C  0.65251455  0.49133673  0.05867100     0.05850
C2181       C  0.64965386  0.51418626  0.08591292    -0.04110
C2182       C  0.61826554  0.51009839  0.09787154    -0.08560
C2183       C  0.58932648  0.48317077  0.08406334     0.04970
C2184       C  0.59318792  0.95883562  0.06413140    -0.03590
Br2185     Br  0.55771423  0.91971667  0.05004673    -0.03280
H2186       H  0.62643638  0.94492390  0.03211480     0.08880
H2187       H  0.61644637  0.52938768  0.11302904     0.06900
Br2188     Br  0.68753918  0.55246538  0.10308476    -0.03710
C2189       C  0.98258815  0.88251095  0.05635592    -0.10340
C2190       C  0.98003195  0.89079284  0.00255635     0.05850
C2191       C  0.47396999  0.86924384  0.96444583    -0.04110
C2192       C  0.47787465  0.84353597  0.97838850    -0.08560
C2193       C  0.48415292  0.83658047  0.03096640     0.04970
C2194       C  0.98461175  0.85558424  0.07071268    -0.03590
Br2195     Br  0.99115249  0.84723761  0.14376131    -0.03280
H2196       H  0.98580548  0.89831815  0.08701250     0.08880
H2197       H  0.47976523  0.83161591  0.94584499     0.06900
Br2198     Br  0.46483091  0.87574366  0.89153936    -0.03710
C2199       C  0.96862434  0.62162756  0.99999328    -0.10340
C2200       C  0.99794161  0.64893143  0.98474978     0.05850
C2201       C  0.52755023  0.64756523  0.98760431    -0.04110
C2202       C  0.52784320  0.62045034  0.00606744    -0.08560
C2203       C  0.49873767  0.59291941  0.02004027     0.04970
C2204       C  0.96873841  0.59386213  0.01703786    -0.03590
Br2205     Br  0.92749943  0.55848747  0.03802877    -0.03280
H2206       H  0.94547835  0.62194904  0.99967875     0.08880
H2207       H  0.55125276  0.62070376  0.00706059     0.06900
Br2208     Br  0.56839289  0.68106033  0.96245104    -0.03710
loop_ 
_geom_bond_atom_site_label_1 
_geom_bond_atom_site_label_2 
_geom_bond_distance 
_geom_bond_site_symmetry_2 
_ccdc_geom_bond_type 
O1            C9   1.274       .  A
O1          Co21   2.050       .  S
O2           C10   1.284       .  A
O2          Co22   2.016   1_554  S
O3           C11   1.273       .  A
O3          Co23   1.914       .  S
O4           C12   1.248   1_655  A
O4          Co24   1.962       .  S
O5          C563   1.291       .  A
O5          Co22   2.053       .  S
O6          C564   1.267       .  A
O6          Co21   2.016       .  S
O7           C10   1.282       .  A
O7        Co1128   1.941       .  S
O8         C1113   1.257       .  A
O8          Co23   1.972   1_554  S
C9         O1112   1.257   1_455  A
C9          C547   1.507   1_455  S
C10         C497   1.484       .  S
C11         O557   1.291   1_545  A
C11        C1066   1.489       .  S
C12         O558   1.267       .  A
C12        C1036   1.486   1_455  S
O13         C578   1.258   1_545  A
O13         Co21   1.949       .  S
O14         C579   1.262       .  A
O14         Co22   1.990       .  S
O15          C28   1.271       .  A
O15       Co1127   2.063   1_455  S
O16        C1133   1.236   1_454  A
O16         Co24   1.940   1_455  S
O17          C29   1.250       .  A
O17         Co22   2.012       .  S
O18          C28   1.240       .  A
O18         Co21   1.943   1_556  S
O19          C26   1.288       .  A
O19         Co24   2.077   1_455  S
O20          C27   1.252   1_545  A
O20         Co23   1.958       .  S
Co21         O25   2.057   1_554  S
Co22       O1681   2.195       .  S
Co23       O1119   2.063       .  S
Co23       O1129   2.008       .  S
Co24       O1111   1.941       .  S
Co24        O577   1.974   1_654  S
O25       Co1678   2.195   1_445  S
O25       Co1127   2.008   1_455  S
O25        Co576   1.973   1_446  S
C26         O565   1.258       .  A
C26        C1079   1.492       .  S
C27         O566   1.262       .  A
C27         C477   1.481   1_565  S
C28         C507   1.478       .  S
C29        O1120   1.236   1_556  A
C29         C534   1.479   1_556  S
O30          C38   1.247   1_445  A
O30         Co50   1.934       .  S
O31        C1143   1.274       .  A
O31        Co603   1.912       .  S
O32          C40   1.280       .  A
O32         Co52   2.042       .  S
O33          C41   1.264       .  A
O33         Co53   2.010       .  S
O34         C592   1.261       .  A
O34        Co603   1.976       .  S
O35          C41   1.262       .  A
O35         Co50   1.993       .  S
O36          C39   1.285   1_455  A
O36         Co53   2.071       .  S
O37        C1694   1.275       .  A
O37         Co52   2.050       .  S
C38        O1693   1.275       .  A
C38         C487   1.473       .  S
C39        O1135   1.274       .  A
C39        C1571   1.468       .  S
C40         O586   1.261       .  A
C40         C434   1.499       .  S
C41         C427   1.478       .  S
O42          C55   1.273   1_545  A
O42         Co50   1.970       .  S
O43          C56   1.269       .  A
O43         Co51   2.061       .  S
O44        C1161   1.245       .  A
O44         Co52   1.923       .  S
O45         C610   1.266       .  A
O45         Co53   1.893       .  S
O46        C1162   1.295       .  A
O46         Co51   2.100       .  S
O47          C57   1.283       .  A
O47        Co602   2.074       .  S
O48          C55   1.265       .  A
O48         Co53   1.987   1_565  S
O49          C56   1.241       .  A
O49         Co52   1.945       .  S
Co50        O599   2.074   1_545  S
Co50         O54   2.008   1_445  S
Co51        O583   1.912       .  S
Co51        O586   1.976       .  S
Co51       O1710   2.027       .  S
Co52       O1710   2.025       .  S
Co53         O54   1.996   1_445  S
O54       Co1707   2.027   1_565  S
O54       Co1708   2.025       .  S
C55         C444   1.472       .  S
C56         C417   1.500       .  S
C57        O1148   1.245   1_455  A
C57         C454   1.485       .  S
C58         O597   1.266       .  A
C58        O1150   1.295   1_455  A
C58        C1578   1.484       .  S
O59          C67   1.274       .  A
O59         Co79   1.998   1_554  S
O60          C68   1.259   1_455  A
O60         Co80   2.032       .  S
O61          C69   1.247   1_655  A
O61         Co81   1.982   1_655  S
O62          C70   1.269       .  A
O62         Co82   1.951       .  S
O63          C69   1.263       .  A
O63         Co80   2.016       .  S
O64          C70   1.282       .  A
O64         Co79   2.052       .  S
O65          C68   1.245       .  A
O65       Co1186   1.968   1_554  S
O66          C67   1.284       .  A
O66       Co1185   1.962       .  S
C67         C374   1.478       .  S
C68         C537   1.491       .  S
C69         C367   1.492       .  S
C70         C397   1.491       .  S
O71          C84   1.262       .  A
O71         Co79   2.029       .  S
O72          C85   1.246       .  A
O72         Co80   1.901       .  S
O73        C1190   1.243   1_454  A
O73         Co81   1.966       .  S
O74          C87   1.274       .  A
O74       Co1186   2.066   1_455  S
O75          C87   1.249       .  A
O75         Co80   1.932   1_556  S
O76          C86   1.259       .  A
O76         Co79   2.045       .  S
O77          C84   1.237       .  A
O77         Co82   1.922       .  S
O78          C85   1.280       .  A
O78         Co81   2.034       .  S
Co79       O1187   2.247       .  S
Co80         O83   2.124   1_554  S
Co81       O1170   1.962   1_455  S
Co81         O83   1.975   1_554  S
Co82       O1169   1.968   1_556  S
Co82       O1178   2.066       .  S
Co82       O1187   1.974       .  S
O83       Co1183   2.247   1_455  S
O83       Co1186   1.974   1_455  S
C84         C354   1.477       .  S
C85         C407   1.474       .  S
C86        O1177   1.243   1_556  A
C86         C544   1.505       .  S
C87         C384   1.488       .  S
O88          C96   1.268       .  A
O88        Co108   1.989       .  S
O89          C97   1.276       .  A
O89        Co109   2.033       .  S
O90          C98   1.248   1_655  A
O90        Co110   1.940       .  S
O91          C99   1.270       .  A
O91        Co111   1.910       .  S
O92          C98   1.270       .  A
O92        Co109   2.035       .  S
O93          C99   1.292       .  A
O93        Co108   2.098       .  S
O94        C1201   1.270       .  A
O94        Co111   1.972       .  S
O95          C96   1.270       .  A
O95       Co1214   1.993       .  S
C96         C314   1.488       .  S
C97        O1198   1.270   1_455  A
C97         C457   1.499       .  S
C98         C357   1.468       .  S
C99         C334   1.492       .  S
O100        C113   1.273       .  A
O100       Co108   1.918       .  S
O101        C114   1.250       .  A
O101       Co109   1.909       .  S
O102       C1219   1.256   1_655  A
O102       Co110   1.948       .  S
O103        C116   1.264       .  A
O103      Co1215   2.034   1_455  S
O104        C116   1.248       .  A
O104       Co109   1.959       .  S
O105        C115   1.284       .  A
O105       Co108   2.020       .  S
O106        C113   1.288       .  A
O106       Co111   2.071       .  S
O107        C114   1.282       .  A
O107       Co110   2.075   1_455  S
Co108      O1216   2.018       .  S
Co109       O112   2.055       .  S
Co110      O1199   1.993       .  S
Co110       O112   2.043   1_655  S
Co111      O1207   2.034       .  S
Co111      O1216   2.036       .  S
O112      Co1212   2.018   1_455  S
O112      Co1215   2.036   1_455  S
C113        C364   1.482       .  S
C114        C344   1.494       .  S
C115       O1206   1.256       .  A
C115        C464   1.487       .  S
C116        C327   1.490       .  S
O117        C125   1.263       .  A
O117       Co137   1.968   1_565  S
O118        C126   1.253       .  A
O118       Co138   1.964   1_554  S
O119        C127   1.268       .  A
O119       Co139   2.009       .  S
O120        C128   1.294       .  A
O120       Co140   2.085       .  S
O121        C127   1.262       .  A
O121       Co138   1.959       .  S
O122        C128   1.264       .  A
O122       Co137   1.885       .  S
O123        C126   1.253       .  A
O123       Co692   2.000       .  S
O124        C677   1.282   1_556  A
O124       Co139   2.039       .  S
C125        O676   1.282   1_564  A
C125        C524   1.475       .  S
C126        C297   1.478       .  S
C127        C387   1.466       .  S
C128        C287   1.454       .  S
O129        C142   1.299       .  A
O129       Co137   2.101       .  S
O130        C143   1.267       .  A
O130       Co138   2.003       .  S
O131        C144   1.250       .  A
O131       Co691   1.964       .  S
O132        C697   1.267   1_545  A
O132       Co140   1.966   1_556  S
O133        C145   1.281       .  A
O133       Co138   2.038       .  S
O134        C144   1.258   1_554  A
O134       Co137   1.999       .  S
O135        C142   1.257       .  A
O135       Co140   1.885       .  S
O136        C143   1.263       .  A
O136       Co139   1.962       .  S
Co137       O141   2.011   1_544  S
Co138       O693   2.012       .  S
Co139       O683   1.964       .  S
Co139       O693   2.020       .  S
Co140       O675   2.000   1_545  S
Co140       O141   2.008   1_544  S
O141       Co690   2.012       .  S
O141       Co691   2.020   1_565  S
C142        C377   1.465       .  S
C143        C274   1.460       .  S
C144        C304   1.458       .  S
C145        O684   1.267       .  A
C145        C517   1.490       .  S
O146        C154   1.260   1_545  A
O146       Co166   2.043       .  S
O147        C155   1.240       .  A
O147       Co167   1.938       .  S
O148        C156   1.260       .  A
O148       Co168   2.055       .  S
O149        C157   1.288       .  A
O149       Co169   2.094   1_565  S
O150        C156   1.250       .  A
O150       Co167   1.959       .  S
O151        C157   1.259   1_545  A
O151       Co166   1.884       .  S
O152        C155   1.272       .  A
O152       Co721   2.061       .  S
O153        C154   1.234       .  A
O153       Co720   1.951   1_565  S
C154        C447   1.465       .  S
C155        C257   1.479       .  S
C156        C324   1.496       .  S
C157        C277   1.452       .  S
O158        C171   1.313       .  A
O158       Co166   2.115       .  S
O159        C172   1.282       .  A
O159       Co167   2.006       .  S
O160        C173   1.281       .  A
O160       Co720   2.067       .  S
O161        C726   1.271       .  A
O161       Co169   1.988       .  S
O162        C174   1.275       .  A
O162       Co167   2.025       .  S
O163        C173   1.280       .  A
O163       Co166   2.020       .  S
O164        C171   1.275       .  A
O164       Co169   1.889       .  S
O165        C172   1.276       .  A
O165       Co168   1.953       .  S
Co166       O170   2.029   1_545  S
Co167       O722   1.981       .  S
Co168       O705   1.951       .  S
Co168       O712   2.067       .  S
Co168       O722   2.022       .  S
Co169       O704   2.061   1_545  S
Co169       O170   2.027   1_545  S
O170       Co719   1.981       .  S
O170       Co720   2.022   1_565  S
C171        C317   1.492       .  S
C172        C284   1.463       .  S
C173        C267   1.528       .  S
C174        O713   1.271       .  A
C174        C437   1.501       .  S
O175        C183   1.234       .  A
O175       Co195   1.939   1_554  S
O176        C184   1.281       .  A
O176       Co196   1.983       .  S
O177        C185   1.272       .  A
O177       Co197   2.045       .  S
O178        C186   1.246   1_554  A
O178       Co198   2.005   1_554  S
O179        C185   1.252       .  A
O179       Co196   1.956       .  S
O180        C186   1.254       .  A
O180       Co195   1.990       .  S
O181        C184   1.284   1_556  A
O181       Co198   1.976       .  S
O182        C183   1.262       .  A
O182       Co197   2.034       .  S
C183        C504   1.477       .  S
C184        C294   1.459       .  S
C185        C244   1.498       .  S
C186        C404   1.480   1_556  S
O187        C200   1.257       .  A
O187       Co195   1.946       .  S
O188        C201   1.289       .  A
O188       Co196   2.061       .  S
O189        C202   1.261       .  A
O189       Co197   1.958   1_556  S
O190        C203   1.251       .  A
O190       Co198   2.010       .  S
O191        C203   1.279   1_554  A
O191       Co196   2.026       .  S
O192        C202   1.269       .  A
O192       Co195   2.004       .  S
O193        C200   1.288       .  A
O193       Co198   2.068       .  S
O194        C201   1.254       .  A
O194       Co197   1.965       .  S
Co195       O199   2.057   1_556  S
Co196       O199   2.015       .  S
Co197       O199   2.125       .  S
Co198       O199   2.075   1_556  S
C200        C237   1.491       .  S
C201        C394   1.491       .  S
C202        C307   1.458       .  S
C203        C494   1.472       .  S
O204        C212   1.267       .  A
O204       Co224   1.918       .  S
O205        C213   1.253       .  A
O205       Co225   1.951       .  S
O206        C214   1.274       .  A
O206       Co226   2.053       .  S
O207        C215   1.285       .  A
O207       Co227   2.049       .  S
O208        C214   1.260       .  A
O208       Co225   1.948       .  S
O209        C215   1.266       .  A
O209       Co224   1.972       .  S
O210        C213   1.264       .  A
O210       Co227   2.015       .  S
O211        C212   1.298       .  A
O211       Co226   2.118       .  S
C212        C424   1.494       .  S
C213        C254   1.482       .  S
C214        C347   1.495       .  S
C215        C247   1.504       .  S
O216        C229   1.265       .  A
O216       Co224   2.031       .  S
O217        C230   1.271       .  A
O217       Co225   1.997       .  S
O218        C231   1.280       .  A
O218       Co226   1.944       .  S
O219        C232   1.268       .  A
O219       Co227   1.974       .  S
O220        C232   1.276       .  A
O220       Co225   2.045       .  S
O221        C231   1.286       .  A
O221       Co224   2.068       .  S
O222        C229   1.255       .  A
O222       Co227   1.963       .  S
O223        C230   1.280       .  A
O223       Co226   2.014       .  S
Co224       O228   2.037       .  S
Co225       O228   2.031       .  S
Co226       O228   2.050       .  S
Co227       O228   2.056       .  S
C229        C337   1.481       .  S
C230        C234   1.508       .  S
C231        C264   1.504       .  S
C232        C414   1.500       .  S
C233        C234   1.418       .  A
C233        C238   1.404       .  A
C233        H240   1.083       .  S
C234        C235   1.413       .  A
C235        C236   1.410       .  A
C235       Br242   1.919       .  S
C236        C237   1.413       .  A
C236        H241   1.084       .  S
C237        C238   1.404       .  A
C238       Br239   1.920       .  S
C243        C244   1.407       .  A
C243        C248   1.416       .  A
C243        H250   1.081       .  S
C244        C245   1.412       .  A
C245        C246   1.397       .  A
C245       Br252   1.907       .  S
C246        C247   1.403       .  A
C246        H251   1.083       .  S
C247        C248   1.420       .  A
C248       Br249   1.914       .  S
C253        C254   1.406       .  A
C253        C258   1.398       .  A
C253        H260   1.083       .  S
C254        C255   1.403       .  A
C255        C256   1.406       .  A
C255       Br262   1.913       .  S
C256        C257   1.407       .  A
C256        H261   1.077       .  S
C257        C258   1.410       .  A
C258       Br259   1.921       .  S
C263        C264   1.391       .  A
C263        C268   1.403       .  A
C263        H270   1.084       .  S
C264        C265   1.417       .  A
C265        C266   1.423       .  A
C265       Br272   1.909       .  S
C266        C267   1.413       .  A
C266        H271   1.082       .  S
C267        C268   1.423       .  A
C268       Br269   1.883       .  S
C273        C278   1.392       .  A
C273        C826   1.400   1_545  A
C273        H280   1.084       .  S
C274        C275   1.410       .  A
C274        C825   1.400       .  A
C275        C276   1.395       .  A
C275       Br282   1.919       .  S
C276        C829   1.398       .  A
C276        H281   1.084       .  S
C277        C278   1.405   1_565  A
C277        C828   1.398       .  A
C278       Br279   1.918       .  S
C283        C284   1.406       .  A
C283        C288   1.387       .  A
C283        H290   1.084       .  S
C284        C837   1.408       .  A
C285        C286   1.395       .  A
C285        C836   1.408       .  A
C285       Br292   1.921       .  S
C286        C287   1.404       .  A
C286        H291   1.084       .  S
C287        C840   1.403   1_545  A
C288        C839   1.403       .  A
C288       Br289   1.922       .  S
C293        C294   1.399       .  A
C293        C298   1.401       .  A
C293        H300   1.084       .  S
C294        C295   1.403       .  A
C295        C296   1.390       .  A
C295       Br302   1.917       .  S
C296        C297   1.404       .  A
C296        H301   1.084       .  S
C297        C298   1.419       .  A
C298       Br299   1.922       .  S
C303        C304   1.399       .  A
C303        C308   1.395       .  A
C303        H310   1.084       .  S
C304        C305   1.411       .  A
C305        C306   1.390       .  A
C305       Br312   1.915       .  S
C306        C307   1.398       .  A
C306        H311   1.085       .  S
C307        C308   1.406       .  A
C308       Br309   1.911       .  S
C313        C314   1.405       .  A
C313        C318   1.393       .  A
C313        H320   1.083       .  S
C314        C315   1.406       .  A
C315        C316   1.412       .  A
C315       Br322   1.910       .  S
C316        C317   1.412       .  A
C316        H321   1.083       .  S
C317        C318   1.414       .  A
C318       Br319   1.927       .  S
C323        C324   1.403       .  A
C323        C328   1.393       .  A
C323        H330   1.084       .  S
C324        C325   1.417       .  A
C325        C326   1.407       .  A
C325       Br332   1.906       .  S
C326        C327   1.405       .  A
C326        H331   1.084       .  S
C327        C328   1.417       .  A
C328       Br329   1.922       .  S
C333        C334   1.404       .  A
C333        C338   1.397       .  A
C333        H340   1.079       .  S
C334        C335   1.419       .  A
C335        C336   1.406       .  A
C335       Br342   1.920       .  S
C336        C337   1.401       .  A
C336        H341   1.083       .  S
C337        C338   1.410       .  A
C338       Br339   1.922       .  S
C343        C344   1.415       .  A
C343        C348   1.426       .  A
C343        H350   1.083       .  S
C344        C345   1.415       .  A
C345        C346   1.376       .  A
C345       Br352   1.924       .  S
C346        C347   1.392       .  A
C346        H351   1.078       .  S
C347        C348   1.417       .  A
C348       Br349   1.915       .  S
C353        C354   1.412       .  A
C353        C358   1.395       .  A
C353        H360   1.084       .  S
C354       C1459   1.405       .  A
C355        C356   1.401   1_655  A
C355       C1458   1.405       .  A
C355       Br362   1.919       .  S
C356        C357   1.409       .  A
C356        H361   1.082       .  S
C357       C1462   1.398       .  A
C358       C1461   1.398       .  A
C358       Br359   1.915       .  S
C363        C364   1.402       .  A
C363        C368   1.403       .  A
C363        H370   1.084       .  S
C364       C1469   1.413       .  A
C365        C366   1.400       .  A
C365       C1468   1.413   1_455  A
C365       Br372   1.920       .  S
C366        C367   1.405       .  A
C366        H371   1.083       .  S
C367       C1472   1.420   1_455  A
C368       C1471   1.420       .  A
C368       Br369   1.922       .  S
C373        C374   1.401       .  A
C373        C378   1.402       .  A
C373        H380   1.083       .  S
C374        C375   1.424       .  A
C375        C376   1.385       .  A
C375       Br382   1.918   1_554  S
C376        C377   1.387       .  A
C376        H381   1.085   1_554  S
C377        C378   1.416       .  A
C378       Br379   1.920       .  S
C383        C384   1.411       .  A
C383        C388   1.389       .  A
C383        H390   1.084       .  S
C384        C385   1.409       .  A
C385        C386   1.404       .  A
C385       Br392   1.896       .  S
C386        C387   1.402       .  A
C386        H391   1.084       .  S
C387        C388   1.405       .  A
C388       Br389   1.925       .  S
C393        C394   1.416   1_556  A
C393        C398   1.412       .  A
C393        H400   1.083       .  S
C394        C395   1.401       .  A
C395        C396   1.396       .  A
C395       Br402   1.906       .  S
C396        C397   1.410   1_554  A
C396        H401   1.078       .  S
C397        C398   1.404       .  A
C398       Br399   1.917       .  S
C403        C404   1.393   1_556  A
C403        C408   1.390       .  A
C403        H410   1.084       .  S
C404        C405   1.419       .  A
C405        C406   1.408       .  A
C405       Br412   1.911       .  S
C406        C407   1.399       .  A
C406        H411   1.083       .  S
C407        C408   1.422   1_554  A
C408       Br409   1.931       .  S
C413        C414   1.416       .  A
C413        C418   1.414       .  A
C413        H420   1.078       .  S
C414        C415   1.409       .  A
C415        C416   1.398       .  A
C415       Br422   1.923       .  S
C416        C417   1.413       .  A
C416        H421   1.083       .  S
C417        C418   1.405       .  A
C418       Br419   1.913       .  S
C423        C424   1.405       .  A
C423        C428   1.407       .  A
C423        H430   1.083       .  S
C424        C425   1.409       .  A
C425        C426   1.400       .  A
C425       Br432   1.889       .  S
C426        C427   1.395       .  A
C426        H431   1.083       .  S
C427        C428   1.408       .  A
C428       Br429   1.907       .  S
C433        C438   1.409       .  A
C433        C986   1.413       .  A
C433        H440   1.083       .  S
C434        C435   1.409       .  A
C434        C985   1.413       .  A
C435        C436   1.404       .  A
C435       Br442   1.915       .  S
C436        C437   1.410       .  A
C436        H441   1.083       .  S
C437        C990   1.408       .  A
C438        C989   1.408       .  A
C438       Br439   1.918       .  S
C443        C444   1.395       .  A
C443        C448   1.361       .  A
C443        H450   1.085       .  S
C444        C445   1.416       .  A
C445        C446   1.416       .  A
C445      Br1004   1.914       .  S
C446        C447   1.408       .  A
C446        H451   1.083       .  S
C447        C448   1.406       .  A
C448       Br449   1.925   1_565  S
Br452       C997   1.914       .  S
C453        C454   1.406       .  A
C453        C458   1.404       .  A
C453        H460   1.072       .  S
C454       C1559   1.406   1_455  A
C455        C456   1.405       .  A
C455       C1558   1.406       .  A
C455       Br462   1.918       .  S
C456       C1561   1.409       .  A
C456        H461   1.075       .  S
C457        C458   1.411       .  A
C457       C1560   1.409   1_455  A
C458       Br459   1.917       .  S
C463        C468   1.406       .  A
C463       C1568   1.402       .  A
C463        H470   1.083       .  S
C464        C465   1.431       .  A
C464       C1567   1.402       .  A
C465        C466   1.388       .  A
C465       Br472   1.930       .  S
C466        C467   1.386       .  A
C466        H471   1.085       .  S
C467       C1143   1.468       .  S
C467       C1572   1.416       .  A
C468       C1571   1.416   1_455  A
C468       Br469   1.917       .  S
C473        C478   1.395       .  A
C473       C2130   1.404       .  A
C473        H480   1.083       .  S
C474       C1162   1.484       .  S
C474        C475   1.414       .  A
C474       C2129   1.404       .  A
C475        C476   1.398       .  A
C475       Br482   1.913       .  S
C476       C1029   1.403       .  A
C476        H481   1.083       .  S
C477       C1028   1.403   1_545  A
C477       C1582   1.414       .  A
C478       C1581   1.414       .  A
C478       Br479   1.921       .  S
C483        C484   1.403   1_455  A
C483        C488   1.389   1_545  A
C483        H490   1.083       .  S
C484        C564   1.486   1_655  S
C484       C2141   1.420   1_545  A
C485        C486   1.408       .  A
C485       C2140   1.420       .  A
C485       Br492   1.920       .  S
C486       C2143   1.401       .  A
C486        H491   1.081       .  S
C487        C488   1.411   1_655  A
C487       C2142   1.401       .  A
C488       Br489   1.924   1_565  S
C493        C494   1.411   1_554  A
C493        C498   1.392       .  A
C493        H500   1.080       .  S
C494        C495   1.403       .  A
C495        C496   1.400       .  A
C495       Br502   1.918       .  S
C496        C497   1.415   1_556  A
C496        H501   1.083       .  S
C497        C498   1.405       .  A
C498       Br499   1.923       .  S
C503        C504   1.417   1_556  A
C503        C508   1.402       .  A
C503        H510   1.083       .  S
C504        C505   1.399       .  A
C505        C506   1.391       .  A
C505       Br512   1.920       .  S
C506        C507   1.414   1_554  A
C506        H511   1.082       .  S
C507        C508   1.399       .  A
C508       Br509   1.917       .  S
C513        C514   1.408       .  A
C513        C518   1.394       .  A
C513        H520   1.084       .  S
C514        C563   1.489       .  S
C514       C1067   1.408       .  A
C515        C516   1.404       .  A
C515       C1066   1.408       .  A
C515       Br522   1.916       .  S
C516       C1069   1.413       .  A
C516        H521   1.083       .  S
C517        C518   1.413       .  A
C517       C1068   1.413       .  A
C518       Br519   1.924       .  S
C523        C528   1.398       .  A
C523       C1076   1.390       .  A
C523        H530   1.084       .  S
C524        C525   1.410   1_565  A
C524       C1075   1.390       .  A
C525        C526   1.406       .  A
C525       Br532   1.918       .  S
C526        C527   1.410   1_545  A
C526        H531   1.084       .  S
C527        C578   1.492       .  S
C527       C1080   1.413       .  A
C528       C1079   1.413       .  A
C528       Br529   1.877       .  S
C533        C534   1.415       .  A
C533        C538   1.405       .  A
C533        H540   1.082       .  S
C534       C1639   1.391   1_554  A
C535        C536   1.393       .  A
C535       C1638   1.391   1_556  A
C535       Br542   1.923       .  S
C536        C537   1.412   1_556  A
C536        H541   1.062       .  S
C537       C1642   1.399       .  A
C538       C1641   1.399       .  A
C538       Br539   1.916       .  S
C543        C544   1.413       .  A
C543        C548   1.417   1_556  A
C543        H550   1.082       .  S
C544       C1649   1.408       .  A
C545        C546   1.400   1_556  A
C545       C1648   1.408   1_455  A
C545       Br552   1.901       .  S
C546        C547   1.406   1_455  A
C546        H551   1.080       .  S
C547       C1652   1.416       .  A
C548       C1651   1.416       .  A
C548       Br549   1.919       .  S
O553        C561   1.274       .  A
O553       Co573   2.050       .  S
O554        C562   1.284       .  A
O554       Co574   2.016   1_554  S
O555        C563   1.273       .  A
O555       Co575   1.914       .  S
O556        C564   1.248   1_665  A
O556       Co576   1.962       .  S
O557       Co574   2.053       .  S
O558       Co573   2.016       .  S
O559        C562   1.282       .  A
O559      Co1680   1.941       .  S
O560       C1665   1.257       .  A
O560       Co575   1.972   1_554  S
C561       O1664   1.257   1_455  A
C561       C1099   1.507   1_455  S
C562       C1049   1.484       .  S
O565       Co573   1.949       .  S
O566       Co574   1.990       .  S
O567        C580   1.271       .  A
O567      Co1679   2.063   1_455  S
O568       C1685   1.236   1_454  A
O568       Co576   1.940   1_455  S
O569        C581   1.250       .  A
O569       Co574   2.012       .  S
O570        C580   1.240       .  A
O570       Co573   1.943   1_556  S
O571        C578   1.288       .  A
O571       Co576   2.077   1_455  S
O572        C579   1.252       .  A
O572       Co575   1.958       .  S
Co573       O577   2.057   1_554  S
Co574      O1129   2.195   1_565  S
Co575      O1671   2.063       .  S
Co575      O1681   2.008       .  S
Co576      O1663   1.941       .  S
O577      Co1126   2.195   1_455  S
O577      Co1679   2.008   1_455  S
C579       C1029   1.481       .  S
C580       C1059   1.478       .  S
C581       O1672   1.236   1_556  A
C581       C1086   1.479   1_556  S
O582        C590   1.247   1_455  A
O582       Co602   1.934       .  S
O583       C1695   1.274       .  A
O584        C592   1.280   1_565  A
O584       Co604   2.042       .  S
O585        C593   1.264       .  A
O585       Co605   2.010       .  S
O587        C593   1.262       .  A
O587       Co602   1.993       .  S
O588        C591   1.285   1_455  A
O588       Co605   2.071       .  S
O589       C1142   1.275       .  A
O589       Co604   2.050       .  S
C590       O1141   1.275       .  A
C590       C1039   1.473       .  S
C591       O1687   1.274       .  A
C591       C2123   1.468       .  S
C592        C986   1.499       .  S
C593        C979   1.478       .  S
O594        C607   1.273       .  A
O594       Co602   1.970       .  S
O595        C608   1.269       .  A
O595       Co603   2.061   1_565  S
O596       C1713   1.245       .  A
O596       Co604   1.923       .  S
O597       Co605   1.893       .  S
O598       C1714   1.295       .  A
O598       Co603   2.100       .  S
O599        C609   1.283       .  A
O600        C607   1.265       .  A
O600       Co605   1.987       .  S
O601        C608   1.241       .  A
O601       Co604   1.945       .  S
Co602       O606   2.008   1_455  S
Co603      O1158   2.027   1_545  S
Co604      O1158   2.025       .  S
Co605       O606   1.996   1_455  S
O606      Co1155   2.027       .  S
O606      Co1156   2.025       .  S
C607        C996   1.472       .  S
C608        C969   1.500       .  S
C609       O1700   1.245   1_455  A
C609       C1006   1.485       .  S
C610       O1702   1.295   1_455  A
C610       C2130   1.484       .  S
O611        C619   1.274       .  A
O611       Co631   1.998   1_554  S
O612        C620   1.259   1_455  A
O612       Co632   2.032       .  S
O613        C621   1.247   1_655  A
O613       Co633   1.982   1_655  S
O614        C622   1.269       .  A
O614       Co634   1.951       .  S
O615        C621   1.263       .  A
O615       Co632   2.016       .  S
O616        C622   1.282       .  A
O616       Co631   2.052       .  S
O617        C620   1.245       .  A
O617      Co1738   1.968   1_554  S
O618        C619   1.284       .  A
O618      Co1737   1.962       .  S
C619        C926   1.478       .  S
C620       C1089   1.491       .  S
C621        C919   1.492       .  S
C622        C949   1.491       .  S
O623        C636   1.262       .  A
O623       Co631   2.029       .  S
O624        C637   1.246       .  A
O624       Co632   1.901       .  S
O625       C1742   1.243   1_454  A
O625       Co633   1.966       .  S
O626        C639   1.274       .  A
O626      Co1738   2.066   1_455  S
O627        C639   1.249       .  A
O627       Co632   1.932   1_556  S
O628        C638   1.259       .  A
O628       Co631   2.045       .  S
O629        C636   1.237       .  A
O629       Co634   1.922       .  S
O630        C637   1.280       .  A
O630       Co633   2.034       .  S
Co631      O1739   2.247       .  S
Co632       O635   2.124   1_554  S
Co633      O1722   1.962   1_455  S
Co633       O635   1.975   1_554  S
Co634      O1721   1.968   1_556  S
Co634      O1730   2.066       .  S
Co634      O1739   1.974       .  S
O635      Co1735   2.247   1_455  S
O635      Co1738   1.974   1_455  S
C636        C906   1.477       .  S
C637        C959   1.474       .  S
C638       O1729   1.243   1_556  A
C638       C1096   1.505       .  S
C639        C936   1.488       .  S
O640        C648   1.268       .  A
O640       Co660   1.989       .  S
O641        C649   1.276       .  A
O641       Co661   2.033       .  S
O642        C650   1.248   1_655  A
O642       Co662   1.940       .  S
O643        C651   1.270       .  A
O643       Co663   1.910       .  S
O644        C650   1.270       .  A
O644       Co661   2.035       .  S
O645        C651   1.292       .  A
O645       Co660   2.098       .  S
O646       C1753   1.270       .  A
O646       Co663   1.972       .  S
O647        C648   1.270       .  A
O647      Co1766   1.993       .  S
C648        C866   1.488       .  S
C649       O1750   1.270   1_455  A
C649       C1009   1.499       .  S
C650        C909   1.468       .  S
C651        C886   1.492       .  S
O652        C665   1.273       .  A
O652       Co660   1.918       .  S
O653        C666   1.250       .  A
O653       Co661   1.909       .  S
O654       C1771   1.256       .  A
O654       Co662   1.948       .  S
O655        C668   1.264       .  A
O655      Co1767   2.034   1_455  S
O656        C668   1.248       .  A
O656       Co661   1.959       .  S
O657        C667   1.284       .  A
O657       Co660   2.020       .  S
O658        C665   1.288       .  A
O658       Co663   2.071       .  S
O659        C666   1.282       .  A
O659       Co662   2.075   1_455  S
Co660      O1768   2.018       .  S
Co661       O664   2.055       .  S
Co662      O1751   1.993       .  S
Co662       O664   2.043   1_655  S
Co663      O1759   2.034       .  S
Co663      O1768   2.036       .  S
O664      Co1764   2.018   1_455  S
O664      Co1767   2.036   1_455  S
C665        C916   1.482       .  S
C666        C896   1.494       .  S
C667       O1758   1.256       .  A
C667       C1016   1.487       .  S
C668        C879   1.490       .  S
O669        C677   1.263       .  A
O669       Co689   1.968       .  S
O670        C678   1.253       .  A
O670       Co690   1.964   1_554  S
O671        C679   1.268       .  A
O671       Co691   2.009   1_565  S
O672        C680   1.294       .  A
O672       Co692   2.085       .  S
O673        C679   1.262       .  A
O673       Co690   1.959       .  S
O674        C680   1.264       .  A
O674       Co689   1.885       .  S
O675        C678   1.253       .  A
O676       Co691   2.039       .  S
C677       C1076   1.475       .  S
C678        C849   1.478       .  S
C679        C939   1.466       .  S
C680        C839   1.454       .  S
O681        C694   1.299       .  A
O681       Co689   2.101       .  S
O682        C695   1.267       .  A
O682       Co690   2.003       .  S
O683        C696   1.250       .  A
O684       Co692   1.966   1_556  S
O685        C697   1.281       .  A
O685       Co690   2.038       .  S
O686        C696   1.258   1_554  A
O686       Co689   1.999       .  S
O687        C694   1.257       .  A
O687       Co692   1.885       .  S
O688        C695   1.263   1_545  A
O688       Co691   1.963       .  S
Co689       O693   2.011   1_554  S
Co692       O693   2.008   1_554  S
C694        C929   1.465       .  S
C695        C826   1.460       .  S
C696        C856   1.458       .  S
C697       C1069   1.490   1_565  S
O698        C706   1.260       .  A
O698       Co718   2.043       .  S
O699        C707   1.240       .  A
O699       Co719   1.938       .  S
O700        C708   1.260       .  A
O700       Co720   2.055   1_565  S
O701        C709   1.288       .  A
O701       Co721   2.094       .  S
O702        C708   1.250       .  A
O702       Co719   1.959       .  S
O703        C709   1.259       .  A
O703       Co718   1.884       .  S
O704        C707   1.272       .  A
O705        C706   1.234       .  A
C706        C999   1.465       .  S
C707        C809   1.479       .  S
C708        C876   1.496       .  S
C709        C829   1.452       .  S
O710        C723   1.313       .  A
O710       Co718   2.115       .  S
O711        C724   1.282   1_565  A
O711       Co719   2.006       .  S
O712        C725   1.281       .  A
O713       Co721   1.988       .  S
O714        C726   1.275   1_565  A
O714       Co719   2.025       .  S
O715        C725   1.280       .  A
O715       Co718   2.020       .  S
O716        C723   1.275       .  A
O716       Co721   1.889       .  S
O717        C724   1.276       .  A
O717       Co720   1.953       .  S
Co718       O722   2.029       .  S
Co721       O722   2.027       .  S
C723        C869   1.492       .  S
C724        C836   1.463       .  S
C725        C819   1.528       .  S
C726        C989   1.501       .  S
O727        C735   1.234       .  A
O727       Co747   1.939   1_554  S
O728        C736   1.281       .  A
O728       Co748   1.983       .  S
O729        C737   1.272       .  A
O729       Co749   2.045       .  S
O730        C738   1.246   1_554  A
O730       Co750   2.005   1_554  S
O731        C737   1.252       .  A
O731       Co748   1.956       .  S
O732        C738   1.254       .  A
O732       Co747   1.990       .  S
O733        C736   1.284   1_556  A
O733       Co750   1.976       .  S
O734        C735   1.262       .  A
O734       Co749   2.034       .  S
C735       C1056   1.477       .  S
C736        C846   1.459       .  S
C737        C796   1.498       .  S
C738        C956   1.480   1_556  S
O739        C752   1.257       .  A
O739       Co747   1.946       .  S
O740        C753   1.289       .  A
O740       Co748   2.061       .  S
O741        C754   1.261       .  A
O741       Co749   1.958   1_556  S
O742        C755   1.251       .  A
O742       Co750   2.010       .  S
O743        C755   1.279   1_554  A
O743       Co748   2.026       .  S
O744        C754   1.269       .  A
O744       Co747   2.004       .  S
O745        C752   1.288       .  A
O745       Co750   2.068       .  S
O746        C753   1.254       .  A
O746       Co749   1.965       .  S
Co747       O751   2.057   1_556  S
Co748       O751   2.015       .  S
Co749       O751   2.125       .  S
Co750       O751   2.075   1_556  S
C752        C789   1.491       .  S
C753        C946   1.491       .  S
C754        C859   1.458       .  S
C755       C1046   1.472       .  S
O756        C764   1.267       .  A
O756       Co776   1.918       .  S
O757        C765   1.253       .  A
O757       Co777   1.951       .  S
O758        C766   1.274       .  A
O758       Co778   2.053       .  S
O759        C767   1.285       .  A
O759       Co779   2.049       .  S
O760        C766   1.260       .  A
O760       Co777   1.948       .  S
O761        C767   1.266       .  A
O761       Co776   1.972       .  S
O762        C765   1.264       .  A
O762       Co779   2.015       .  S
O763        C764   1.298       .  A
O763       Co778   2.118       .  S
C764        C976   1.494       .  S
C765        C806   1.482       .  S
C766        C899   1.495       .  S
C767        C799   1.504       .  S
O768        C781   1.265       .  A
O768       Co776   2.031       .  S
O769        C782   1.271       .  A
O769       Co777   1.997       .  S
O770        C783   1.280       .  A
O770       Co778   1.944       .  S
O771        C784   1.268       .  A
O771       Co779   1.974       .  S
O772        C784   1.276       .  A
O772       Co777   2.045       .  S
O773        C783   1.286       .  A
O773       Co776   2.068       .  S
O774        C781   1.255       .  A
O774       Co779   1.963       .  S
O775        C782   1.280       .  A
O775       Co778   2.014       .  S
Co776       O780   2.037       .  S
Co777       O780   2.031       .  S
Co778       O780   2.050       .  S
Co779       O780   2.056       .  S
C781        C889   1.481       .  S
C782        C786   1.508       .  S
C783        C816   1.504       .  S
C784        C966   1.500       .  S
C785        C786   1.418       .  A
C785        C790   1.404       .  A
C785        H792   1.083       .  S
C786        C787   1.413       .  A
C787        C788   1.410       .  A
C787       Br794   1.919       .  S
C788        C789   1.413       .  A
C788        H793   1.084       .  S
C789        C790   1.404       .  A
C790       Br791   1.920       .  S
C795        C796   1.407       .  A
C795        C800   1.416       .  A
C795        H802   1.081       .  S
C796        C797   1.412       .  A
C797        C798   1.397       .  A
C797       Br804   1.907       .  S
C798        C799   1.403       .  A
C798        H803   1.083       .  S
C799        C800   1.420       .  A
C800       Br801   1.914       .  S
C805        C806   1.406       .  A
C805        C810   1.398       .  A
C805        H812   1.083       .  S
C806        C807   1.403       .  A
C807        C808   1.406       .  A
C807       Br814   1.913       .  S
C808        C809   1.407       .  A
C808        H813   1.077       .  S
C809        C810   1.410       .  A
C810       Br811   1.921       .  S
C815        C816   1.391       .  A
C815        C820   1.403       .  A
C815        H822   1.084       .  S
C816        C817   1.417       .  A
C817        C818   1.423       .  A
C817       Br824   1.909       .  S
C818        C819   1.413       .  A
C818        H823   1.082       .  S
C819        C820   1.423       .  A
C820       Br821   1.883       .  S
C825        C830   1.392       .  A
C825        H832   1.084       .  S
C826        C827   1.410       .  A
C827        C828   1.395       .  A
C827       Br834   1.919       .  S
C828        H833   1.084       .  S
C829        C830   1.405       .  A
C830       Br831   1.918       .  S
C835        C836   1.406   1_565  A
C835        C840   1.387       .  A
C835        H842   1.084       .  S
C837        C838   1.395       .  A
C837       Br844   1.921       .  S
C838        C839   1.404       .  A
C838        H843   1.084       .  S
C840       Br841   1.922       .  S
C845        C846   1.399       .  A
C845        C850   1.401       .  A
C845        H852   1.084       .  S
C846        C847   1.403       .  A
C847        C848   1.390       .  A
C847       Br854   1.917       .  S
C848        C849   1.404       .  A
C848        H853   1.084       .  S
C849        C850   1.419       .  A
C850       Br851   1.922       .  S
C855        C856   1.399       .  A
C855        C860   1.395       .  A
C855        H862   1.084       .  S
C856        C857   1.411       .  A
C857        C858   1.390       .  A
C857       Br864   1.915       .  S
C858        C859   1.398       .  A
C858        H863   1.085       .  S
C859        C860   1.406       .  A
C860       Br861   1.911       .  S
C865        C866   1.405       .  A
C865        C870   1.393       .  A
C865        H872   1.083       .  S
C866        C867   1.406       .  A
C867        C868   1.412       .  A
C867       Br874   1.910       .  S
C868        C869   1.412       .  A
C868        H873   1.083       .  S
C869        C870   1.414       .  A
C870       Br871   1.927       .  S
C875        C876   1.403       .  A
C875        C880   1.393       .  A
C875        H882   1.084       .  S
C876        C877   1.417       .  A
C877        C878   1.407       .  A
C877       Br884   1.906       .  S
C878        C879   1.405       .  A
C878        H883   1.084       .  S
C879        C880   1.417       .  A
C880       Br881   1.922       .  S
C885        C886   1.404       .  A
C885        C890   1.397       .  A
C885        H892   1.079       .  S
C886        C887   1.419       .  A
C887        C888   1.406       .  A
C887       Br894   1.920       .  S
C888        C889   1.401       .  A
C888        H893   1.083       .  S
C889        C890   1.410       .  A
C890       Br891   1.922       .  S
C895        C896   1.415       .  A
C895        C900   1.426       .  A
C895        H902   1.083       .  S
C896        C897   1.415       .  A
C897        C898   1.376       .  A
C897       Br904   1.924       .  S
C898        C899   1.392       .  A
C898        H903   1.078       .  S
C899        C900   1.417       .  A
C900       Br901   1.915       .  S
C905        C906   1.412       .  A
C905        C910   1.395       .  A
C905        H912   1.084       .  S
C906       C2011   1.405       .  A
C907       C2010   1.405       .  A
C907        C908   1.401   1_655  A
C907       Br914   1.919       .  S
C908        C909   1.409       .  A
C908        H913   1.082       .  S
C909       C2014   1.398       .  A
C910       C2013   1.398       .  A
C910       Br911   1.915       .  S
C915        C916   1.402       .  A
C915        C920   1.403       .  A
C915        H922   1.084       .  S
C916       C2021   1.413       .  A
C917       C2020   1.413   1_455  A
C917        C918   1.400       .  A
C917       Br924   1.920       .  S
C918        C919   1.405       .  A
C918        H923   1.083       .  S
C919       C2024   1.420   1_455  A
C920       C2023   1.420       .  A
C920       Br921   1.922       .  S
C925        C926   1.401       .  A
C925        C930   1.402       .  A
C925        H932   1.083       .  S
C926        C927   1.424       .  A
C927        C928   1.385       .  A
C927       Br934   1.918   1_554  S
C928        C929   1.387       .  A
C928        H933   1.085   1_554  S
C929        C930   1.416       .  A
C930       Br931   1.920       .  S
C935        C936   1.411       .  A
C935        C940   1.389       .  A
C935        H942   1.084       .  S
C936        C937   1.409       .  A
C937        C938   1.404       .  A
C937       Br944   1.896       .  S
C938        C939   1.402       .  A
C938        H943   1.084       .  S
C939        C940   1.405       .  A
C940       Br941   1.925       .  S
C945        C946   1.416   1_556  A
C945        C950   1.412       .  A
C945        H952   1.083       .  S
C946        C947   1.401       .  A
C947        C948   1.396       .  A
C947       Br954   1.906       .  S
C948        C949   1.410   1_554  A
C948        H953   1.078       .  S
C949        C950   1.404       .  A
C950       Br951   1.917       .  S
C955        C956   1.393   1_556  A
C955        C960   1.390       .  A
C955        H962   1.084       .  S
C956        C957   1.419       .  A
C957        C958   1.408       .  A
C957       Br964   1.911       .  S
C958        C959   1.399       .  A
C958        H963   1.083       .  S
C959        C960   1.422   1_554  A
C960       Br961   1.931       .  S
C965        C966   1.416       .  A
C965        C970   1.414       .  A
C965        H972   1.078       .  S
C966        C967   1.409       .  A
C967        C968   1.398       .  A
C967       Br974   1.923       .  S
C968        C969   1.413       .  A
C968        H973   1.083       .  S
C969        C970   1.405       .  A
C970       Br971   1.913       .  S
C975        C976   1.405       .  A
C975        C980   1.407       .  A
C975        H982   1.083       .  S
C976        C977   1.409       .  A
C977        C978   1.400       .  A
C977       Br984   1.889       .  S
C978        C979   1.395       .  A
C978        H983   1.083       .  S
C979        C980   1.408       .  A
C980       Br981   1.907       .  S
C985        C990   1.409       .  A
C985        H992   1.083       .  S
C986        C987   1.409   1_545  A
C987        C988   1.404       .  A
C987       Br994   1.915       .  S
C988        C989   1.410   1_565  A
C988        H993   1.083       .  S
C990       Br991   1.918       .  S
C995        C996   1.395       .  A
C995       C1000   1.361       .  A
C995       H1002   1.085       .  S
C996        C997   1.416       .  A
C997        C998   1.416       .  A
C998        C999   1.408       .  A
C998       H1003   1.083       .  S
C999       C1000   1.406       .  A
C1000     Br1001   1.925       .  S
C1005      C1006   1.406       .  A
C1005      C1010   1.404       .  A
C1005      H1012   1.072       .  S
C1006      C2111   1.406   1_455  A
C1007      C2110   1.406       .  A
C1007      C1008   1.405       .  A
C1007     Br1014   1.918       .  S
C1008      C2113   1.409       .  A
C1008      H1013   1.075       .  S
C1009      C2112   1.409   1_455  A
C1009      C1010   1.411       .  A
C1010     Br1011   1.917       .  S
C1015      C2120   1.402       .  A
C1015      C1020   1.406       .  A
C1015      H1022   1.083       .  S
C1016      C2119   1.402       .  A
C1016      C1017   1.431       .  A
C1017      C1018   1.388       .  A
C1017     Br1024   1.930       .  S
C1018      C1019   1.386       .  A
C1018      H1023   1.085       .  S
C1019      C1695   1.468       .  S
C1019      C2124   1.416       .  A
C1020      C2123   1.416   1_455  A
C1020     Br1021   1.917       .  S
C1025      C1578   1.404       .  A
C1025      C1030   1.395       .  A
C1025      H1032   1.083       .  S
C1026      C1714   1.484       .  S
C1026      C1577   1.404       .  A
C1026      C1027   1.414   1_545  A
C1027      C1028   1.398       .  A
C1027     Br1034   1.913       .  S
C1028      H1033   1.083       .  S
C1029      C2134   1.414       .  A
C1030      C2133   1.414       .  A
C1030     Br1031   1.921       .  S
C1035      C1036   1.403   1_455  A
C1035      C1040   1.389       .  A
C1035      H1042   1.083       .  S
C1036      C1589   1.420       .  A
C1037      C1588   1.420   1_565  A
C1037      C1038   1.408       .  A
C1037     Br1044   1.920       .  S
C1038      C1591   1.401       .  A
C1038      H1043   1.081       .  S
C1039      C1590   1.401       .  A
C1039      C1040   1.411   1_655  A
C1040     Br1041   1.924       .  S
C1045      C1046   1.411   1_554  A
C1045      C1050   1.392       .  A
C1045      H1052   1.080       .  S
C1046      C1047   1.403       .  A
C1047      C1048   1.400       .  A
C1047     Br1054   1.918       .  S
C1048      C1049   1.415   1_556  A
C1048      H1053   1.083       .  S
C1049      C1050   1.405       .  A
C1050     Br1051   1.923       .  S
C1055      C1056   1.417   1_556  A
C1055      C1060   1.402       .  A
C1055      H1062   1.083       .  S
C1056      C1057   1.399       .  A
C1057      C1058   1.391       .  A
C1057     Br1064   1.920       .  S
C1058      C1059   1.414   1_554  A
C1058      H1063   1.082       .  S
C1059      C1060   1.399       .  A
C1060     Br1061   1.917       .  S
C1065      C1066   1.408   1_565  A
C1065      C1070   1.394       .  A
C1065      H1072   1.084       .  S
C1067      C1068   1.404       .  A
C1067     Br1074   1.916       .  S
C1068      H1073   1.083       .  S
C1069      C1070   1.413   1_545  A
C1070     Br1071   1.924       .  S
C1075      C1080   1.398       .  A
C1075      H1082   1.084       .  S
C1076      C1077   1.410       .  A
C1077      C1078   1.406       .  A
C1077     Br1084   1.918       .  S
C1078      C1079   1.410       .  A
C1078      H1083   1.084       .  S
C1080     Br1081   1.877       .  S
C1085      C1086   1.415       .  A
C1085      C1090   1.405       .  A
C1085      H1092   1.082       .  S
C1086      C2191   1.391   1_554  A
C1087      C2190   1.391   1_556  A
C1087      C1088   1.393       .  A
C1087     Br1094   1.923       .  S
C1088      C1089   1.412   1_556  A
C1088      H1093   1.062       .  S
C1089      C2194   1.399       .  A
C1090      C2193   1.399       .  A
C1090     Br1091   1.916       .  S
C1095      C1096   1.413       .  A
C1095      C1100   1.417   1_556  A
C1095      H1102   1.082       .  S
C1096      C2201   1.408       .  A
C1097      C2200   1.408   1_455  A
C1097      C1098   1.400   1_556  A
C1097     Br1104   1.901       .  S
C1098      C1099   1.406   1_455  A
C1098      H1103   1.080       .  S
C1099      C2204   1.416       .  A
C1100      C2203   1.416       .  A
C1100     Br1101   1.919       .  S
O1105      C1113   1.274       .  A
O1105     Co1125   2.050       .  S
O1106      C1114   1.284       .  A
O1106     Co1126   2.016   1_554  S
O1107      C1115   1.273       .  A
O1107     Co1127   1.914       .  S
O1108      C1116   1.248       .  A
O1108     Co1128   1.962       .  S
O1109      C1667   1.291       .  A
O1109     Co1126   2.053       .  S
O1110      C1668   1.267       .  A
O1110     Co1125   2.016       .  S
O1111      C1114   1.282       .  A
O1112     Co1127   1.972   1_554  S
C1113      C1651   1.507       .  S
C1114      C1601   1.484       .  S
C1115      O1661   1.291   1_545  A
C1115      C2170   1.489       .  S
C1116      O1662   1.267       .  A
C1116      C2140   1.486       .  S
O1117      C1682   1.258   1_545  A
O1117     Co1125   1.949       .  S
O1118      C1683   1.262   1_655  A
O1118     Co1126   1.990       .  S
O1119      C1132   1.271       .  A
O1120     Co1128   1.940       .  S
O1121      C1133   1.250       .  A
O1121     Co1126   2.012       .  S
O1122      C1132   1.240       .  A
O1122     Co1125   1.943   1_556  S
O1123      C1130   1.288       .  A
O1123     Co1128   2.077       .  S
O1124      C1131   1.252   1_545  A
O1124     Co1127   1.958   1_455  S
Co1125     O1129   2.057   1_554  S
Co1128     O1681   1.974   1_554  S
O1129     Co1680   1.973   1_546  S
C1130      O1669   1.258       .  A
C1130      C2183   1.492       .  S
C1131      O1670   1.262   1_455  A
C1131      C1581   1.481   1_565  S
C1132      C1611   1.478       .  S
C1133      C1638   1.479   1_556  S
O1134      C1142   1.247   1_545  A
O1134     Co1154   1.934       .  S
O1135     Co1707   1.912       .  S
O1136      C1144   1.280       .  A
O1136     Co1156   2.042       .  S
O1137      C1145   1.264       .  A
O1137     Co1157   2.010       .  S
O1138      C1696   1.261       .  A
O1138     Co1707   1.976       .  S
O1139      C1145   1.262       .  A
O1139     Co1154   1.993       .  S
O1140      C1143   1.285       .  A
O1140     Co1157   2.071       .  S
O1141     Co1156   2.050       .  S
C1142      C1591   1.473       .  S
C1144      O1690   1.261       .  A
C1144      C1538   1.499       .  S
C1145      C1531   1.478       .  S
O1146      C1159   1.273   1_545  A
O1146     Co1154   1.970       .  S
O1147      C1160   1.269       .  A
O1147     Co1155   2.061       .  S
O1148     Co1156   1.923       .  S
O1149      C1714   1.266       .  A
O1149     Co1157   1.893       .  S
O1150     Co1155   2.100       .  S
O1151      C1161   1.283       .  A
O1151     Co1706   2.074       .  S
O1152      C1159   1.265       .  A
O1152     Co1157   1.987   1_565  S
O1153      C1160   1.241       .  A
O1153     Co1156   1.945       .  S
Co1154     O1703   2.074   1_545  S
Co1154     O1158   2.008   1_545  S
Co1155     O1687   1.912       .  S
Co1155     O1690   1.976       .  S
Co1157     O1158   1.996   1_545  S
C1159      C1548   1.472       .  S
C1160      C1521   1.500       .  S
C1161      C1558   1.485       .  S
C1162      O1701   1.266       .  A
O1163      C1171   1.274       .  A
O1163     Co1183   1.998   1_554  S
O1164      C1172   1.259       .  A
O1164     Co1184   2.032       .  S
O1165      C1173   1.247       .  A
O1165     Co1185   1.982       .  S
O1166      C1174   1.269       .  A
O1166     Co1186   1.951       .  S
O1167      C1173   1.263       .  A
O1167     Co1184   2.016       .  S
O1168      C1174   1.282       .  A
O1168     Co1183   2.052       .  S
O1169      C1172   1.245       .  A
O1170      C1171   1.284       .  A
C1171      C1478   1.478       .  S
C1172      C1641   1.491       .  S
C1173      C1471   1.492       .  S
C1174      C1501   1.491       .  S
O1175      C1188   1.262       .  A
O1175     Co1183   2.029       .  S
O1176      C1189   1.246       .  A
O1176     Co1184   1.901       .  S
O1177     Co1185   1.966       .  S
O1178      C1191   1.274       .  A
O1179      C1191   1.249       .  A
O1179     Co1184   1.932   1_556  S
O1180      C1190   1.259       .  A
O1180     Co1183   2.045       .  S
O1181      C1188   1.237   1_455  A
O1181     Co1186   1.922   1_455  S
O1182      C1189   1.280       .  A
O1182     Co1185   2.034       .  S
Co1184     O1187   2.124   1_554  S
Co1185     O1187   1.975   1_554  S
C1188      C1458   1.477       .  S
C1189      C1511   1.474       .  S
C1190      C1648   1.505       .  S
C1191      C1488   1.488       .  S
O1192      C1200   1.268       .  A
O1192     Co1212   1.989       .  S
O1193      C1201   1.276       .  A
O1193     Co1213   2.033       .  S
O1194      C1202   1.248       .  A
O1194     Co1214   1.940       .  S
O1195      C1203   1.270       .  A
O1195     Co1215   1.910       .  S
O1196      C1202   1.270       .  A
O1196     Co1213   2.035       .  S
O1197      C1203   1.292       .  A
O1197     Co1212   2.098       .  S
O1198     Co1215   1.972       .  S
O1199      C1200   1.270       .  A
C1200      C1418   1.488       .  S
C1201      C1561   1.499       .  S
C1202      C1461   1.468       .  S
C1203      C1438   1.492       .  S
O1204      C1217   1.273       .  A
O1204     Co1212   1.918       .  S
O1205      C1218   1.250       .  A
O1205     Co1213   1.909       .  S
O1206     Co1214   1.948       .  S
O1207      C1220   1.264       .  A
O1208      C1220   1.248       .  A
O1208     Co1213   1.959       .  S
O1209      C1219   1.284       .  A
O1209     Co1212   2.020   1_455  S
O1210      C1217   1.288   1_455  A
O1210     Co1215   2.071   1_455  S
O1211      C1218   1.282       .  A
O1211     Co1214   2.075       .  S
Co1213     O1216   2.055       .  S
Co1214     O1216   2.043       .  S
C1217      C1468   1.482       .  S
C1218      C1448   1.494       .  S
C1219      C1568   1.487       .  S
C1220      C1431   1.490       .  S
O1221      C1229   1.263       .  A
O1221     Co1241   1.968   1_565  S
O1222      C1230   1.253       .  A
O1222     Co1242   1.964   1_554  S
O1223      C1231   1.268       .  A
O1223     Co1243   2.009       .  S
O1224      C1232   1.294       .  A
O1224     Co1244   2.085       .  S
O1225      C1231   1.262       .  A
O1225     Co1242   1.959       .  S
O1226      C1232   1.264       .  A
O1226     Co1241   1.885       .  S
O1227      C1230   1.253       .  A
O1227     Co1796   2.000       .  S
O1228      C1781   1.282   1_556  A
O1228     Co1243   2.039       .  S
C1229      O1780   1.282   1_564  A
C1229      C1628   1.475       .  S
C1230      C1401   1.478       .  S
C1231      C1491   1.466       .  S
C1232      C1391   1.454       .  S
O1233      C1246   1.299       .  A
O1233     Co1241   2.101       .  S
O1234      C1247   1.267       .  A
O1234     Co1242   2.003       .  S
O1235      C1248   1.250       .  A
O1235     Co1795   1.964       .  S
O1236      C1801   1.267   1_545  A
O1236     Co1244   1.966   1_556  S
O1237      C1249   1.281       .  A
O1237     Co1242   2.038       .  S
O1238      C1248   1.258   1_554  A
O1238     Co1241   1.999       .  S
O1239      C1246   1.257       .  A
O1239     Co1244   1.885       .  S
O1240      C1247   1.263       .  A
O1240     Co1243   1.962       .  S
Co1241     O1245   2.011   1_544  S
Co1242     O1797   2.012       .  S
Co1243     O1787   1.964       .  S
Co1243     O1797   2.020       .  S
Co1244     O1779   2.000   1_545  S
Co1244     O1245   2.008   1_544  S
O1245     Co1794   2.012       .  S
O1245     Co1795   2.020   1_565  S
C1246      C1481   1.465       .  S
C1247      C1378   1.460       .  S
C1248      C1408   1.458       .  S
C1249      O1788   1.267       .  A
C1249      C1621   1.490       .  S
O1250      C1258   1.260   1_545  A
O1250     Co1270   2.043       .  S
O1251      C1259   1.240       .  A
O1251     Co1271   1.938       .  S
O1252      C1260   1.260       .  A
O1252     Co1272   2.055       .  S
O1253      C1261   1.288       .  A
O1253     Co1273   2.094   1_565  S
O1254      C1260   1.250       .  A
O1254     Co1271   1.959       .  S
O1255      C1261   1.259   1_545  A
O1255     Co1270   1.884       .  S
O1256      C1259   1.272       .  A
O1256     Co1825   2.061       .  S
O1257      C1258   1.234       .  A
O1257     Co1824   1.951   1_565  S
C1258      C1551   1.465       .  S
C1259      C1361   1.479       .  S
C1260      C1428   1.496       .  S
C1261      C1381   1.452       .  S
O1262      C1275   1.313       .  A
O1262     Co1270   2.115       .  S
O1263      C1276   1.282       .  A
O1263     Co1271   2.006       .  S
O1264      C1277   1.281       .  A
O1264     Co1824   2.067       .  S
O1265      C1830   1.271       .  A
O1265     Co1273   1.988       .  S
O1266      C1278   1.275       .  A
O1266     Co1271   2.025       .  S
O1267      C1277   1.280       .  A
O1267     Co1270   2.020       .  S
O1268      C1275   1.275       .  A
O1268     Co1273   1.889       .  S
O1269      C1276   1.276       .  A
O1269     Co1272   1.953       .  S
Co1270     O1274   2.029   1_545  S
Co1271     O1826   1.981       .  S
Co1272     O1809   1.951       .  S
Co1272     O1816   2.067       .  S
Co1272     O1826   2.022       .  S
Co1273     O1808   2.061   1_545  S
Co1273     O1274   2.027   1_545  S
O1274     Co1823   1.981       .  S
O1274     Co1824   2.022   1_565  S
C1275      C1421   1.492       .  S
C1276      C1388   1.463       .  S
C1277      C1371   1.528       .  S
C1278      O1817   1.271       .  A
C1278      C1541   1.501       .  S
O1279      C1287   1.234       .  A
O1279     Co1299   1.939   1_554  S
O1280      C1288   1.281       .  A
O1280     Co1300   1.983       .  S
O1281      C1289   1.272       .  A
O1281     Co1301   2.045       .  S
O1282      C1290   1.246   1_554  A
O1282     Co1302   2.005   1_554  S
O1283      C1289   1.252       .  A
O1283     Co1300   1.956       .  S
O1284      C1290   1.254       .  A
O1284     Co1299   1.990       .  S
O1285      C1288   1.284   1_556  A
O1285     Co1302   1.976       .  S
O1286      C1287   1.262       .  A
O1286     Co1301   2.034       .  S
C1287      C1608   1.477       .  S
C1288      C1398   1.459       .  S
C1289      C1348   1.498       .  S
C1290      C1508   1.480   1_556  S
O1291      C1304   1.257       .  A
O1291     Co1299   1.946       .  S
O1292      C1305   1.289       .  A
O1292     Co1300   2.061       .  S
O1293      C1306   1.261       .  A
O1293     Co1301   1.958   1_556  S
O1294      C1307   1.251       .  A
O1294     Co1302   2.010       .  S
O1295      C1307   1.279   1_554  A
O1295     Co1300   2.026       .  S
O1296      C1306   1.269       .  A
O1296     Co1299   2.004       .  S
O1297      C1304   1.288       .  A
O1297     Co1302   2.068       .  S
O1298      C1305   1.254       .  A
O1298     Co1301   1.965       .  S
Co1299     O1303   2.057   1_556  S
Co1300     O1303   2.015       .  S
Co1301     O1303   2.125       .  S
Co1302     O1303   2.075   1_556  S
C1304      C1341   1.491       .  S
C1305      C1498   1.491       .  S
C1306      C1411   1.458       .  S
C1307      C1598   1.472       .  S
O1308      C1316   1.267       .  A
O1308     Co1328   1.918       .  S
O1309      C1317   1.253       .  A
O1309     Co1329   1.951       .  S
O1310      C1318   1.274       .  A
O1310     Co1330   2.053       .  S
O1311      C1319   1.285       .  A
O1311     Co1331   2.049       .  S
O1312      C1318   1.260       .  A
O1312     Co1329   1.948       .  S
O1313      C1319   1.266       .  A
O1313     Co1328   1.972       .  S
O1314      C1317   1.264       .  A
O1314     Co1331   2.015       .  S
O1315      C1316   1.298       .  A
O1315     Co1330   2.118       .  S
C1316      C1528   1.494       .  S
C1317      C1358   1.482       .  S
C1318      C1451   1.495       .  S
C1319      C1351   1.504       .  S
O1320      C1333   1.265       .  A
O1320     Co1328   2.031       .  S
O1321      C1334   1.271       .  A
O1321     Co1329   1.997       .  S
O1322      C1335   1.280       .  A
O1322     Co1330   1.944       .  S
O1323      C1336   1.268       .  A
O1323     Co1331   1.974       .  S
O1324      C1336   1.276       .  A
O1324     Co1329   2.045       .  S
O1325      C1335   1.286       .  A
O1325     Co1328   2.068       .  S
O1326      C1333   1.255       .  A
O1326     Co1331   1.963       .  S
O1327      C1334   1.280       .  A
O1327     Co1330   2.014       .  S
Co1328     O1332   2.037       .  S
Co1329     O1332   2.031       .  S
Co1330     O1332   2.050       .  S
Co1331     O1332   2.056       .  S
C1333      C1441   1.481       .  S
C1334      C1338   1.508       .  S
C1335      C1368   1.504       .  S
C1336      C1518   1.500       .  S
C1337      C1338   1.418       .  A
C1337      C1342   1.404       .  A
C1337      H1344   1.083       .  S
C1338      C1339   1.413       .  A
C1339      C1340   1.410       .  A
C1339     Br1346   1.919       .  S
C1340      C1341   1.413       .  A
C1340      H1345   1.084       .  S
C1341      C1342   1.404       .  A
C1342     Br1343   1.920       .  S
C1347      C1348   1.407       .  A
C1347      C1352   1.416       .  A
C1347      H1354   1.081       .  S
C1348      C1349   1.412       .  A
C1349      C1350   1.397       .  A
C1349     Br1356   1.907       .  S
C1350      C1351   1.403       .  A
C1350      H1355   1.083       .  S
C1351      C1352   1.420       .  A
C1352     Br1353   1.914       .  S
C1357      C1358   1.406       .  A
C1357      C1362   1.398       .  A
C1357      H1364   1.083       .  S
C1358      C1359   1.403       .  A
C1359      C1360   1.406       .  A
C1359     Br1366   1.913       .  S
C1360      C1361   1.407       .  A
C1360      H1365   1.077       .  S
C1361      C1362   1.410       .  A
C1362     Br1363   1.921       .  S
C1367      C1368   1.391       .  A
C1367      C1372   1.403       .  A
C1367      H1374   1.084       .  S
C1368      C1369   1.417       .  A
C1369      C1370   1.423       .  A
C1369     Br1376   1.909       .  S
C1370      C1371   1.413       .  A
C1370      H1375   1.082       .  S
C1371      C1372   1.423       .  A
C1372     Br1373   1.883       .  S
C1377      C1930   1.400   1_545  A
C1377      C1382   1.392       .  A
C1377      H1384   1.084       .  S
C1378      C1929   1.400       .  A
C1378      C1379   1.410       .  A
C1379      C1380   1.395       .  A
C1379     Br1386   1.919       .  S
C1380      C1933   1.398       .  A
C1380      H1385   1.084       .  S
C1381      C1932   1.398       .  A
C1381      C1382   1.405   1_565  A
C1382     Br1383   1.918       .  S
C1387      C1388   1.406       .  A
C1387      C1392   1.387       .  A
C1387      H1394   1.084       .  S
C1388      C1941   1.408       .  A
C1389      C1940   1.408       .  A
C1389      C1390   1.395       .  A
C1389     Br1396   1.921       .  S
C1390      C1391   1.404       .  A
C1390      H1395   1.084       .  S
C1391      C1944   1.403   1_545  A
C1392      C1943   1.403       .  A
C1392     Br1393   1.922       .  S
C1397      C1398   1.399       .  A
C1397      C1402   1.401       .  A
C1397      H1404   1.084       .  S
C1398      C1399   1.403       .  A
C1399      C1400   1.390       .  A
C1399     Br1406   1.917       .  S
C1400      C1401   1.404       .  A
C1400      H1405   1.084       .  S
C1401      C1402   1.419       .  A
C1402     Br1403   1.922       .  S
C1407      C1408   1.399       .  A
C1407      C1412   1.395       .  A
C1407      H1414   1.084       .  S
C1408      C1409   1.411       .  A
C1409      C1410   1.390       .  A
C1409     Br1416   1.915       .  S
C1410      C1411   1.398       .  A
C1410      H1415   1.085       .  S
C1411      C1412   1.406       .  A
C1412     Br1413   1.911       .  S
C1417      C1418   1.405       .  A
C1417      C1422   1.393       .  A
C1417      H1424   1.083       .  S
C1418      C1419   1.406       .  A
C1419      C1420   1.412       .  A
C1419     Br1426   1.910       .  S
C1420      C1421   1.412       .  A
C1420      H1425   1.083       .  S
C1421      C1422   1.414       .  A
C1422     Br1423   1.927       .  S
C1427      C1428   1.403       .  A
C1427      C1432   1.393       .  A
C1427      H1434   1.084       .  S
C1428      C1429   1.417       .  A
C1429      C1430   1.407       .  A
C1429     Br1436   1.906       .  S
C1430      C1431   1.405       .  A
C1430      H1435   1.084       .  S
C1431      C1432   1.417       .  A
C1432     Br1433   1.922       .  S
C1437      C1438   1.404       .  A
C1437      C1442   1.397       .  A
C1437      H1444   1.079       .  S
C1438      C1439   1.419       .  A
C1439      C1440   1.406       .  A
C1439     Br1446   1.920       .  S
C1440      C1441   1.401       .  A
C1440      H1445   1.083       .  S
C1441      C1442   1.410       .  A
C1442     Br1443   1.922       .  S
C1447      C1448   1.415       .  A
C1447      C1452   1.426       .  A
C1447      H1454   1.083       .  S
C1448      C1449   1.415       .  A
C1449      C1450   1.376       .  A
C1449     Br1456   1.924       .  S
C1450      C1451   1.392       .  A
C1450      H1455   1.078       .  S
C1451      C1452   1.417       .  A
C1452     Br1453   1.915       .  S
C1457      C1458   1.412   1_455  A
C1457      C1462   1.395       .  A
C1457      H1464   1.084       .  S
C1459      C1460   1.401       .  A
C1459     Br1466   1.919       .  S
C1460      C1461   1.409       .  A
C1460      H1465   1.082       .  S
C1462     Br1463   1.915       .  S
C1467      C1468   1.402       .  A
C1467      C1472   1.403       .  A
C1467      H1474   1.084       .  S
C1469      C1470   1.400       .  A
C1469     Br1476   1.920       .  S
C1470      C1471   1.405       .  A
C1470      H1475   1.083       .  S
C1472     Br1473   1.922       .  S
C1477      C1478   1.401       .  A
C1477      C1482   1.402       .  A
C1477      H1484   1.083       .  S
C1478      C1479   1.424       .  A
C1479      C1480   1.385       .  A
C1479     Br1486   1.918   1_554  S
C1480      C1481   1.387       .  A
C1480      H1485   1.085   1_554  S
C1481      C1482   1.416       .  A
C1482     Br1483   1.920       .  S
C1487      C1488   1.411       .  A
C1487      C1492   1.389       .  A
C1487      H1494   1.084       .  S
C1488      C1489   1.409       .  A
C1489      C1490   1.404       .  A
C1489     Br1496   1.896       .  S
C1490      C1491   1.402       .  A
C1490      H1495   1.084       .  S
C1491      C1492   1.405       .  A
C1492     Br1493   1.925       .  S
C1497      C1498   1.416   1_556  A
C1497      C1502   1.412       .  A
C1497      H1504   1.083       .  S
C1498      C1499   1.401       .  A
C1499      C1500   1.396       .  A
C1499     Br1506   1.906       .  S
C1500      C1501   1.410   1_554  A
C1500      H1505   1.078       .  S
C1501      C1502   1.404       .  A
C1502     Br1503   1.917       .  S
C1507      C1508   1.393   1_556  A
C1507      C1512   1.390       .  A
C1507      H1514   1.084       .  S
C1508      C1509   1.419       .  A
C1509      C1510   1.408       .  A
C1509     Br1516   1.911       .  S
C1510      C1511   1.399       .  A
C1510      H1515   1.083       .  S
C1511      C1512   1.422   1_554  A
C1512     Br1513   1.931       .  S
C1517      C1518   1.416       .  A
C1517      C1522   1.414       .  A
C1517      H1524   1.078       .  S
C1518      C1519   1.409       .  A
C1519      C1520   1.398       .  A
C1519     Br1526   1.923       .  S
C1520      C1521   1.413       .  A
C1520      H1525   1.083       .  S
C1521      C1522   1.405       .  A
C1522     Br1523   1.913       .  S
C1527      C1528   1.405       .  A
C1527      C1532   1.407       .  A
C1527      H1534   1.083       .  S
C1528      C1529   1.409       .  A
C1529      C1530   1.400       .  A
C1529     Br1536   1.889       .  S
C1530      C1531   1.395       .  A
C1530      H1535   1.083       .  S
C1531      C1532   1.408       .  A
C1532     Br1533   1.907       .  S
C1537      C2090   1.413       .  A
C1537      C1542   1.409       .  A
C1537      H1544   1.083       .  S
C1538      C2089   1.413       .  A
C1538      C1539   1.409       .  A
C1539      C1540   1.404       .  A
C1539     Br1546   1.915       .  S
C1540      C1541   1.410       .  A
C1540      H1545   1.083       .  S
C1541      C2094   1.408       .  A
C1542      C2093   1.408       .  A
C1542     Br1543   1.918       .  S
C1547      C1548   1.395       .  A
C1547      C1552   1.361       .  A
C1547      H1554   1.085       .  S
C1548      C1549   1.416       .  A
C1549      C1550   1.416       .  A
C1549     Br2108   1.914       .  S
C1550      C1551   1.408       .  A
C1550      H1555   1.083       .  S
C1551      C1552   1.406       .  A
C1552     Br1553   1.925   1_565  S
Br1556     C2101   1.914       .  S
C1557      C1558   1.406       .  A
C1557      C1562   1.404       .  A
C1557      H1564   1.072       .  S
C1559      C1560   1.405       .  A
C1559     Br1566   1.918       .  S
C1560      H1565   1.075       .  S
C1561      C1562   1.411       .  A
C1562     Br1563   1.917       .  S
C1567      C1572   1.406       .  A
C1567      H1574   1.083       .  S
C1568      C1569   1.431   1_455  A
C1569      C1570   1.388       .  A
C1569     Br1576   1.930       .  S
C1570      C1571   1.386       .  A
C1570      H1575   1.085       .  S
C1572     Br1573   1.917       .  S
C1577      C1582   1.395       .  A
C1577      H1584   1.083       .  S
C1578      C1579   1.414   1_455  A
C1579      C1580   1.398       .  A
C1579     Br1586   1.913       .  S
C1580      C2133   1.403   1_655  A
C1580      H1585   1.083       .  S
C1581      C2132   1.403   1_445  A
C1582     Br1583   1.921       .  S
C1587      C1588   1.403       .  A
C1587      C1592   1.389   1_545  A
C1587      H1594   1.083       .  S
C1588      C1668   1.486       .  S
C1589      C1590   1.408       .  A
C1589     Br1596   1.920       .  S
C1590      H1595   1.081       .  S
C1591      C1592   1.411       .  A
C1592     Br1593   1.924   1_565  S
C1597      C1598   1.411   1_554  A
C1597      C1602   1.392       .  A
C1597      H1604   1.080       .  S
C1598      C1599   1.403       .  A
C1599      C1600   1.400       .  A
C1599     Br1606   1.918       .  S
C1600      C1601   1.415   1_556  A
C1600      H1605   1.083       .  S
C1601      C1602   1.405       .  A
C1602     Br1603   1.923       .  S
C1607      C1608   1.417   1_556  A
C1607      C1612   1.402       .  A
C1607      H1614   1.083       .  S
C1608      C1609   1.399       .  A
C1609      C1610   1.391       .  A
C1609     Br1616   1.920       .  S
C1610      C1611   1.414   1_554  A
C1610      H1615   1.082       .  S
C1611      C1612   1.399       .  A
C1612     Br1613   1.917       .  S
C1617      C1618   1.408       .  A
C1617      C1622   1.394       .  A
C1617      H1624   1.084       .  S
C1618      C1667   1.489       .  S
C1618      C2171   1.408       .  A
C1619      C2170   1.408       .  A
C1619      C1620   1.404       .  A
C1619     Br1626   1.916       .  S
C1620      C2173   1.413       .  A
C1620      H1625   1.083       .  S
C1621      C2172   1.413       .  A
C1621      C1622   1.413       .  A
C1622     Br1623   1.924       .  S
C1627      C2180   1.390       .  A
C1627      C1632   1.398       .  A
C1627      H1634   1.084       .  S
C1628      C2179   1.390       .  A
C1628      C1629   1.410   1_565  A
C1629      C1630   1.406       .  A
C1629     Br1636   1.918       .  S
C1630      C1631   1.410   1_545  A
C1630      H1635   1.084       .  S
C1631      C1682   1.492       .  S
C1631      C2184   1.413       .  A
C1632      C2183   1.413       .  A
C1632     Br1633   1.877       .  S
C1637      C1638   1.415       .  A
C1637      C1642   1.405       .  A
C1637      H1644   1.082       .  S
C1639      C1640   1.393       .  A
C1639     Br1646   1.923       .  S
C1640      C1641   1.412   1_556  A
C1640      H1645   1.062       .  S
C1642     Br1643   1.916       .  S
C1647      C1648   1.413       .  A
C1647      C1652   1.417   1_556  A
C1647      H1654   1.082       .  S
C1649      C1650   1.400   1_556  A
C1649     Br1656   1.901       .  S
C1650      C1651   1.406       .  A
C1650      H1655   1.080       .  S
C1652     Br1653   1.919       .  S
O1657      C1665   1.274       .  A
O1657     Co1677   2.050       .  S
O1658      C1666   1.284       .  A
O1658     Co1678   2.016   1_554  S
O1659      C1667   1.273       .  A
O1659     Co1679   1.914       .  S
O1660      C1668   1.248   1_565  A
O1660     Co1680   1.962       .  S
O1661     Co1678   2.053       .  S
O1662     Co1677   2.016       .  S
O1663      C1666   1.282       .  A
O1664     Co1679   1.972   1_554  S
C1665      C2203   1.507       .  S
C1666      C2153   1.484       .  S
O1669     Co1677   1.949       .  S
O1670     Co1678   1.990       .  S
O1671      C1684   1.271       .  A
O1672     Co1680   1.940       .  S
O1673      C1685   1.250       .  A
O1673     Co1678   2.012       .  S
O1674      C1684   1.240       .  A
O1674     Co1677   1.943   1_556  S
O1675      C1682   1.288       .  A
O1675     Co1680   2.077       .  S
O1676      C1683   1.252       .  A
O1676     Co1679   1.958   1_455  S
Co1677     O1681   2.057   1_554  S
C1683      C2133   1.481       .  S
C1684      C2163   1.478       .  S
C1685      C2190   1.479   1_556  S
O1686      C1694   1.247       .  A
O1686     Co1706   1.934       .  S
O1688      C1696   1.280   1_565  A
O1688     Co1708   2.042       .  S
O1689      C1697   1.264       .  A
O1689     Co1709   2.010       .  S
O1691      C1697   1.262       .  A
O1691     Co1706   1.993       .  S
O1692      C1695   1.285       .  A
O1692     Co1709   2.071       .  S
O1693     Co1708   2.050       .  S
C1694      C2143   1.473       .  S
C1696      C2090   1.499       .  S
C1697      C2083   1.478       .  S
O1698      C1711   1.273       .  A
O1698     Co1706   1.970       .  S
O1699      C1712   1.269       .  A
O1699     Co1707   2.061   1_565  S
O1700     Co1708   1.923       .  S
O1701     Co1709   1.893       .  S
O1702     Co1707   2.100       .  S
O1703      C1713   1.283       .  A
O1704      C1711   1.265       .  A
O1704     Co1709   1.987       .  S
O1705      C1712   1.241       .  A
O1705     Co1708   1.945       .  S
Co1706     O1710   2.008       .  S
Co1709     O1710   1.996       .  S
C1711      C2100   1.472       .  S
C1712      C2073   1.500       .  S
C1713      C2110   1.485       .  S
O1715      C1723   1.274       .  A
O1715     Co1735   1.998   1_554  S
O1716      C1724   1.259       .  A
O1716     Co1736   2.032       .  S
O1717      C1725   1.247       .  A
O1717     Co1737   1.982       .  S
O1718      C1726   1.269       .  A
O1718     Co1738   1.951       .  S
O1719      C1725   1.263       .  A
O1719     Co1736   2.016       .  S
O1720      C1726   1.282       .  A
O1720     Co1735   2.052       .  S
O1721      C1724   1.245       .  A
O1722      C1723   1.284       .  A
C1723      C2030   1.478       .  S
C1724      C2193   1.491       .  S
C1725      C2023   1.492       .  S
C1726      C2053   1.491       .  S
O1727      C1740   1.262       .  A
O1727     Co1735   2.029       .  S
O1728      C1741   1.246       .  A
O1728     Co1736   1.901       .  S
O1729     Co1737   1.966       .  S
O1730      C1743   1.274       .  A
O1731      C1743   1.249       .  A
O1731     Co1736   1.932   1_556  S
O1732      C1742   1.259       .  A
O1732     Co1735   2.045       .  S
O1733      C1740   1.237   1_455  A
O1733     Co1738   1.922   1_455  S
O1734      C1741   1.280       .  A
O1734     Co1737   2.034       .  S
Co1736     O1739   2.124   1_554  S
Co1737     O1739   1.975   1_554  S
C1740      C2010   1.477       .  S
C1741      C2063   1.474       .  S
C1742      C2200   1.505       .  S
C1743      C2040   1.488       .  S
O1744      C1752   1.268       .  A
O1744     Co1764   1.989       .  S
O1745      C1753   1.276       .  A
O1745     Co1765   2.033       .  S
O1746      C1754   1.248       .  A
O1746     Co1766   1.940       .  S
O1747      C1755   1.270       .  A
O1747     Co1767   1.910       .  S
O1748      C1754   1.270       .  A
O1748     Co1765   2.035       .  S
O1749      C1755   1.292       .  A
O1749     Co1764   2.098       .  S
O1750     Co1767   1.972       .  S
O1751      C1752   1.270       .  A
C1752      C1970   1.488       .  S
C1753      C2113   1.499       .  S
C1754      C2013   1.468       .  S
C1755      C1990   1.492       .  S
O1756      C1769   1.273       .  A
O1756     Co1764   1.918       .  S
O1757      C1770   1.250       .  A
O1757     Co1765   1.909       .  S
O1758     Co1766   1.948       .  S
O1759      C1772   1.264       .  A
O1760      C1772   1.248       .  A
O1760     Co1765   1.959       .  S
O1761      C1771   1.284   1_455  A
O1761     Co1764   2.020   1_455  S
O1762      C1769   1.288   1_455  A
O1762     Co1767   2.071   1_455  S
O1763      C1770   1.282       .  A
O1763     Co1766   2.075       .  S
Co1765     O1768   2.055       .  S
Co1766     O1768   2.043       .  S
C1769      C2020   1.482       .  S
C1770      C2000   1.494       .  S
C1771      C2120   1.487   1_655  S
C1772      C1983   1.490       .  S
O1773      C1781   1.263       .  A
O1773     Co1793   1.968       .  S
O1774      C1782   1.253       .  A
O1774     Co1794   1.964   1_554  S
O1775      C1783   1.268       .  A
O1775     Co1795   2.009   1_565  S
O1776      C1784   1.294       .  A
O1776     Co1796   2.085       .  S
O1777      C1783   1.262       .  A
O1777     Co1794   1.959       .  S
O1778      C1784   1.264       .  A
O1778     Co1793   1.885       .  S
O1779      C1782   1.253       .  A
O1780     Co1795   2.039       .  S
C1781      C2180   1.475       .  S
C1782      C1953   1.478       .  S
C1783      C2043   1.466       .  S
C1784      C1943   1.454       .  S
O1785      C1798   1.299       .  A
O1785     Co1793   2.101       .  S
O1786      C1799   1.267       .  A
O1786     Co1794   2.003       .  S
O1787      C1800   1.250       .  A
O1788     Co1796   1.966   1_556  S
O1789      C1801   1.281       .  A
O1789     Co1794   2.038       .  S
O1790      C1800   1.258   1_554  A
O1790     Co1793   1.999       .  S
O1791      C1798   1.257       .  A
O1791     Co1796   1.885       .  S
O1792      C1799   1.263   1_545  A
O1792     Co1795   1.963       .  S
Co1793     O1797   2.011   1_554  S
Co1796     O1797   2.008   1_554  S
C1798      C2033   1.465       .  S
C1799      C1930   1.460       .  S
C1800      C1960   1.458       .  S
C1801      C2173   1.490   1_565  S
O1802      C1810   1.260       .  A
O1802     Co1822   2.043       .  S
O1803      C1811   1.240       .  A
O1803     Co1823   1.938       .  S
O1804      C1812   1.260       .  A
O1804     Co1824   2.055   1_565  S
O1805      C1813   1.288       .  A
O1805     Co1825   2.094       .  S
O1806      C1812   1.250       .  A
O1806     Co1823   1.959       .  S
O1807      C1813   1.259       .  A
O1807     Co1822   1.884       .  S
O1808      C1811   1.272       .  A
O1809      C1810   1.234       .  A
C1810      C2103   1.465       .  S
C1811      C1913   1.479       .  S
C1812      C1980   1.496       .  S
C1813      C1933   1.452       .  S
O1814      C1827   1.313       .  A
O1814     Co1822   2.115       .  S
O1815      C1828   1.282   1_565  A
O1815     Co1823   2.006       .  S
O1816      C1829   1.281       .  A
O1817     Co1825   1.988       .  S
O1818      C1830   1.275   1_565  A
O1818     Co1823   2.025       .  S
O1819      C1829   1.280       .  A
O1819     Co1822   2.020       .  S
O1820      C1827   1.275       .  A
O1820     Co1825   1.889       .  S
O1821      C1828   1.276       .  A
O1821     Co1824   1.953       .  S
Co1822     O1826   2.029       .  S
Co1825     O1826   2.027       .  S
C1827      C1973   1.492       .  S
C1828      C1940   1.463       .  S
C1829      C1923   1.528       .  S
C1830      C2093   1.501       .  S
O1831      C1839   1.234       .  A
O1831     Co1851   1.939   1_554  S
O1832      C1840   1.281       .  A
O1832     Co1852   1.983       .  S
O1833      C1841   1.272       .  A
O1833     Co1853   2.045       .  S
O1834      C1842   1.246   1_554  A
O1834     Co1854   2.005   1_554  S
O1835      C1841   1.252       .  A
O1835     Co1852   1.956       .  S
O1836      C1842   1.254       .  A
O1836     Co1851   1.990       .  S
O1837      C1840   1.284   1_556  A
O1837     Co1854   1.976       .  S
O1838      C1839   1.262       .  A
O1838     Co1853   2.034       .  S
C1839      C2160   1.477       .  S
C1840      C1950   1.459       .  S
C1841      C1900   1.498       .  S
C1842      C2060   1.480   1_556  S
O1843      C1856   1.257       .  A
O1843     Co1851   1.946       .  S
O1844      C1857   1.289       .  A
O1844     Co1852   2.061       .  S
O1845      C1858   1.261       .  A
O1845     Co1853   1.958   1_556  S
O1846      C1859   1.251       .  A
O1846     Co1854   2.010       .  S
O1847      C1859   1.279   1_554  A
O1847     Co1852   2.026       .  S
O1848      C1858   1.269       .  A
O1848     Co1851   2.004       .  S
O1849      C1856   1.288       .  A
O1849     Co1854   2.068       .  S
O1850      C1857   1.254       .  A
O1850     Co1853   1.965       .  S
Co1851     O1855   2.057   1_556  S
Co1852     O1855   2.015       .  S
Co1853     O1855   2.125       .  S
Co1854     O1855   2.075   1_556  S
C1856      C1893   1.491       .  S
C1857      C2050   1.491       .  S
C1858      C1963   1.458       .  S
C1859      C2150   1.472       .  S
O1860      C1868   1.267       .  A
O1860     Co1880   1.918       .  S
O1861      C1869   1.253       .  A
O1861     Co1881   1.951       .  S
O1862      C1870   1.274       .  A
O1862     Co1882   2.053       .  S
O1863      C1871   1.285       .  A
O1863     Co1883   2.049       .  S
O1864      C1870   1.260       .  A
O1864     Co1881   1.948       .  S
O1865      C1871   1.266       .  A
O1865     Co1880   1.972       .  S
O1866      C1869   1.264       .  A
O1866     Co1883   2.015       .  S
O1867      C1868   1.298       .  A
O1867     Co1882   2.118       .  S
C1868      C2080   1.494       .  S
C1869      C1910   1.482       .  S
C1870      C2003   1.495       .  S
C1871      C1903   1.504       .  S
O1872      C1885   1.265       .  A
O1872     Co1880   2.031       .  S
O1873      C1886   1.271       .  A
O1873     Co1881   1.997       .  S
O1874      C1887   1.280       .  A
O1874     Co1882   1.944       .  S
O1875      C1888   1.268       .  A
O1875     Co1883   1.974       .  S
O1876      C1888   1.276       .  A
O1876     Co1881   2.045       .  S
O1877      C1887   1.286       .  A
O1877     Co1880   2.068       .  S
O1878      C1885   1.255       .  A
O1878     Co1883   1.963       .  S
O1879      C1886   1.280       .  A
O1879     Co1882   2.014       .  S
Co1880     O1884   2.037       .  S
Co1881     O1884   2.031       .  S
Co1882     O1884   2.050       .  S
Co1883     O1884   2.056       .  S
C1885      C1993   1.481       .  S
C1886      C1890   1.508       .  S
C1887      C1920   1.504       .  S
C1888      C2070   1.500       .  S
C1889      C1890   1.418       .  A
C1889      C1894   1.404       .  A
C1889      H1896   1.083       .  S
C1890      C1891   1.413       .  A
C1891      C1892   1.410       .  A
C1891     Br1898   1.919       .  S
C1892      C1893   1.413       .  A
C1892      H1897   1.084       .  S
C1893      C1894   1.404       .  A
C1894     Br1895   1.920       .  S
C1899      C1900   1.407       .  A
C1899      C1904   1.416       .  A
C1899      H1906   1.081       .  S
C1900      C1901   1.412       .  A
C1901      C1902   1.397       .  A
C1901     Br1908   1.907       .  S
C1902      C1903   1.403       .  A
C1902      H1907   1.083       .  S
C1903      C1904   1.420       .  A
C1904     Br1905   1.914       .  S
C1909      C1910   1.406       .  A
C1909      C1914   1.398       .  A
C1909      H1916   1.083       .  S
C1910      C1911   1.403       .  A
C1911      C1912   1.406       .  A
C1911     Br1918   1.913       .  S
C1912      C1913   1.407       .  A
C1912      H1917   1.077       .  S
C1913      C1914   1.410       .  A
C1914     Br1915   1.921       .  S
C1919      C1920   1.391       .  A
C1919      C1924   1.403       .  A
C1919      H1926   1.084       .  S
C1920      C1921   1.417       .  A
C1921      C1922   1.423       .  A
C1921     Br1928   1.909       .  S
C1922      C1923   1.413       .  A
C1922      H1927   1.082       .  S
C1923      C1924   1.423       .  A
C1924     Br1925   1.883       .  S
C1929      C1934   1.392       .  A
C1929      H1936   1.084       .  S
C1930      C1931   1.410       .  A
C1931      C1932   1.395       .  A
C1931     Br1938   1.919       .  S
C1932      H1937   1.084       .  S
C1933      C1934   1.405       .  A
C1934     Br1935   1.918       .  S
C1939      C1940   1.406   1_565  A
C1939      C1944   1.387       .  A
C1939      H1946   1.084       .  S
C1941      C1942   1.395       .  A
C1941     Br1948   1.921       .  S
C1942      C1943   1.404       .  A
C1942      H1947   1.084       .  S
C1944     Br1945   1.922       .  S
C1949      C1950   1.399       .  A
C1949      C1954   1.401       .  A
C1949      H1956   1.084       .  S
C1950      C1951   1.403       .  A
C1951      C1952   1.390       .  A
C1951     Br1958   1.917       .  S
C1952      C1953   1.404       .  A
C1952      H1957   1.084       .  S
C1953      C1954   1.419       .  A
C1954     Br1955   1.922       .  S
C1959      C1960   1.399       .  A
C1959      C1964   1.395       .  A
C1959      H1966   1.084       .  S
C1960      C1961   1.411       .  A
C1961      C1962   1.390       .  A
C1961     Br1968   1.915       .  S
C1962      C1963   1.398       .  A
C1962      H1967   1.085       .  S
C1963      C1964   1.406       .  A
C1964     Br1965   1.911       .  S
C1969      C1970   1.405       .  A
C1969      C1974   1.393       .  A
C1969      H1976   1.083       .  S
C1970      C1971   1.406       .  A
C1971      C1972   1.412       .  A
C1971     Br1978   1.910       .  S
C1972      C1973   1.412       .  A
C1972      H1977   1.083       .  S
C1973      C1974   1.414       .  A
C1974     Br1975   1.927       .  S
C1979      C1980   1.403       .  A
C1979      C1984   1.393       .  A
C1979      H1986   1.084       .  S
C1980      C1981   1.417       .  A
C1981      C1982   1.407       .  A
C1981     Br1988   1.906       .  S
C1982      C1983   1.405       .  A
C1982      H1987   1.084       .  S
C1983      C1984   1.417       .  A
C1984     Br1985   1.922       .  S
C1989      C1990   1.404       .  A
C1989      C1994   1.397       .  A
C1989      H1996   1.079       .  S
C1990      C1991   1.419       .  A
C1991      C1992   1.406       .  A
C1991     Br1998   1.920       .  S
C1992      C1993   1.401       .  A
C1992      H1997   1.083       .  S
C1993      C1994   1.410       .  A
C1994     Br1995   1.922       .  S
C1999      C2000   1.415       .  A
C1999      C2004   1.426       .  A
C1999      H2006   1.083       .  S
C2000      C2001   1.415       .  A
C2001      C2002   1.376       .  A
C2001     Br2008   1.924       .  S
C2002      C2003   1.392       .  A
C2002      H2007   1.078       .  S
C2003      C2004   1.417       .  A
C2004     Br2005   1.915       .  S
C2009      C2010   1.412   1_455  A
C2009      C2014   1.395       .  A
C2009      H2016   1.084       .  S
C2011      C2012   1.401       .  A
C2011     Br2018   1.919       .  S
C2012      C2013   1.409       .  A
C2012      H2017   1.082       .  S
C2014     Br2015   1.915       .  S
C2019      C2020   1.402       .  A
C2019      C2024   1.403       .  A
C2019      H2026   1.084       .  S
C2021      C2022   1.400       .  A
C2021     Br2028   1.920       .  S
C2022      C2023   1.405       .  A
C2022      H2027   1.083       .  S
C2024     Br2025   1.922       .  S
C2029      C2030   1.401       .  A
C2029      C2034   1.402       .  A
C2029      H2036   1.083       .  S
C2030      C2031   1.424       .  A
C2031      C2032   1.385       .  A
C2031     Br2038   1.918   1_554  S
C2032      C2033   1.387       .  A
C2032      H2037   1.085   1_554  S
C2033      C2034   1.416       .  A
C2034     Br2035   1.920       .  S
C2039      C2040   1.411       .  A
C2039      C2044   1.389       .  A
C2039      H2046   1.084       .  S
C2040      C2041   1.409       .  A
C2041      C2042   1.404       .  A
C2041     Br2048   1.896       .  S
C2042      C2043   1.402       .  A
C2042      H2047   1.084       .  S
C2043      C2044   1.405       .  A
C2044     Br2045   1.925       .  S
C2049      C2050   1.416   1_556  A
C2049      C2054   1.412       .  A
C2049      H2056   1.083       .  S
C2050      C2051   1.401       .  A
C2051      C2052   1.396       .  A
C2051     Br2058   1.906       .  S
C2052      C2053   1.410   1_554  A
C2052      H2057   1.078       .  S
C2053      C2054   1.404       .  A
C2054     Br2055   1.917       .  S
C2059      C2060   1.393   1_556  A
C2059      C2064   1.390       .  A
C2059      H2066   1.084       .  S
C2060      C2061   1.419       .  A
C2061      C2062   1.408       .  A
C2061     Br2068   1.911       .  S
C2062      C2063   1.399       .  A
C2062      H2067   1.083       .  S
C2063      C2064   1.422   1_554  A
C2064     Br2065   1.931       .  S
C2069      C2070   1.416       .  A
C2069      C2074   1.414       .  A
C2069      H2076   1.078       .  S
C2070      C2071   1.409       .  A
C2071      C2072   1.398       .  A
C2071     Br2078   1.923       .  S
C2072      C2073   1.413       .  A
C2072      H2077   1.083       .  S
C2073      C2074   1.405       .  A
C2074     Br2075   1.913       .  S
C2079      C2080   1.405       .  A
C2079      C2084   1.407       .  A
C2079      H2086   1.083       .  S
C2080      C2081   1.409       .  A
C2081      C2082   1.400       .  A
C2081     Br2088   1.889       .  S
C2082      C2083   1.395       .  A
C2082      H2087   1.083       .  S
C2083      C2084   1.408       .  A
C2084     Br2085   1.907       .  S
C2089      C2094   1.409       .  A
C2089      H2096   1.083       .  S
C2090      C2091   1.409   1_545  A
C2091      C2092   1.404       .  A
C2091     Br2098   1.915       .  S
C2092      C2093   1.410   1_565  A
C2092      H2097   1.083       .  S
C2094     Br2095   1.918       .  S
C2099      C2100   1.395       .  A
C2099      C2104   1.361       .  A
C2099      H2106   1.085       .  S
C2100      C2101   1.416       .  A
C2101      C2102   1.416       .  A
C2102      C2103   1.408       .  A
C2102      H2107   1.083       .  S
C2103      C2104   1.406       .  A
C2104     Br2105   1.925       .  S
C2109      C2110   1.406       .  A
C2109      C2114   1.404       .  A
C2109      H2116   1.072       .  S
C2111      C2112   1.405       .  A
C2111     Br2118   1.918       .  S
C2112      H2117   1.075       .  S
C2113      C2114   1.411       .  A
C2114     Br2115   1.917       .  S
C2119      C2124   1.406       .  A
C2119      H2126   1.083       .  S
C2120      C2121   1.431   1_455  A
C2121      C2122   1.388       .  A
C2121     Br2128   1.930       .  S
C2122      C2123   1.386       .  A
C2122      H2127   1.085       .  S
C2124     Br2125   1.917       .  S
C2129      C2134   1.395       .  A
C2129      H2136   1.083       .  S
C2130      C2131   1.414   1_445  A
C2131      C2132   1.398       .  A
C2131     Br2138   1.913       .  S
C2132      H2137   1.083       .  S
C2134     Br2135   1.921       .  S
C2139      C2140   1.403       .  A
C2139      C2144   1.389       .  A
C2139      H2146   1.083       .  S
C2141      C2142   1.408       .  A
C2141     Br2148   1.920       .  S
C2142      H2147   1.081       .  S
C2143      C2144   1.411       .  A
C2144     Br2145   1.924       .  S
C2149      C2150   1.411   1_554  A
C2149      C2154   1.392       .  A
C2149      H2156   1.080       .  S
C2150      C2151   1.403       .  A
C2151      C2152   1.400       .  A
C2151     Br2158   1.918       .  S
C2152      C2153   1.415   1_556  A
C2152      H2157   1.083       .  S
C2153      C2154   1.405       .  A
C2154     Br2155   1.923       .  S
C2159      C2160   1.417   1_556  A
C2159      C2164   1.402       .  A
C2159      H2166   1.083       .  S
C2160      C2161   1.399       .  A
C2161      C2162   1.391       .  A
C2161     Br2168   1.920       .  S
C2162      C2163   1.414   1_554  A
C2162      H2167   1.082       .  S
C2163      C2164   1.399       .  A
C2164     Br2165   1.917       .  S
C2169      C2170   1.408   1_565  A
C2169      C2174   1.394       .  A
C2169      H2176   1.084       .  S
C2171      C2172   1.404       .  A
C2171     Br2178   1.916       .  S
C2172      H2177   1.083       .  S
C2173      C2174   1.413   1_545  A
C2174     Br2175   1.924       .  S
C2179      C2184   1.398       .  A
C2179      H2186   1.084       .  S
C2180      C2181   1.410       .  A
C2181      C2182   1.406       .  A
C2181     Br2188   1.918       .  S
C2182      C2183   1.410       .  A
C2182      H2187   1.084       .  S
C2184     Br2185   1.877       .  S
C2189      C2190   1.415       .  A
C2189      C2194   1.405       .  A
C2189      H2196   1.082       .  S
C2191      C2192   1.393       .  A
C2191     Br2198   1.923       .  S
C2192      C2193   1.412   1_556  A
C2192      H2197   1.062       .  S
C2194     Br2195   1.916       .  S
C2199      C2200   1.413       .  A
C2199      C2204   1.417   1_556  A
C2199      H2206   1.082       .  S
C2201      C2202   1.400   1_556  A
C2201     Br2208   1.901       .  S
C2202      C2203   1.406       .  A
C2202      H2207   1.080       .  S
C2204     Br2205   1.919       .  S
