geometry optimzed in LAMMPS
_audit_creation_date              2020-11-30 
_audit_creation_method            'lammps2cif' 
_symmetry_space_group_name_H-M    'P1' 
_symmetry_Int_Tables_number       1 
_symmetry_cell_setting            triclinic 
loop_ 
_symmetry_equiv_pos_as_xyz 
  x,y,z 
_cell_length_a                    48.64877003 
_cell_length_b                    49.120975241112305 
_cell_length_c                    44.59657625353109 
_cell_angle_alpha                 90.0968801180308 
_cell_angle_beta                  89.94970404266431 
_cell_angle_gamma                 90.0706287397052 
loop_ 
_atom_site_label 
_atom_site_type_symbol 
_atom_site_fract_x 
_atom_site_fract_y 
_atom_site_fract_z 
_atom_site_charge 
C1          C  0.67920440  0.67603980  0.25310520     0.03400
C2          C  0.69142220  0.68339578  0.28045781    -0.12800
C3          C  0.71242393  0.70310754  0.28131486     0.00900
C4          C  0.72200435  0.71424558  0.25428270    -0.11300
C5          C  0.71041552  0.70655713  0.22674084     0.03400
C6          C  0.68862694  0.68777803  0.22637299    -0.10700
H7          H  0.68407556  0.67436493  0.30108289     0.09000
H8          H  0.73836639  0.72932623  0.25469356     0.06500
H9          H  0.67908450  0.68221834  0.20529949     0.06300
C10         C  0.80667938  0.81808007  0.50454078     0.03400
C11         C  0.79506891  0.80846375  0.03123745    -0.12800
C12         C  0.77708153  0.78611843  0.03095873     0.00900
C13         C  0.76943575  0.77452224  0.50337226    -0.11300
C14         C  0.78044219  0.78439205  0.47630688     0.03400
C15         C  0.79950322  0.80588941  0.47719610    -0.10700
H16         H  0.80084847  0.81770974  0.05231679     0.09000
H17         H  0.75524231  0.75749307  0.50299310     0.06500
H18         H  0.80882111  0.81313846  0.45657728     0.06300
C19         C  0.66775399  0.32029174  0.24343151     0.03400
C20         C  0.67424917  0.30719189  0.27036881    -0.12800
C21         C  0.69452425  0.28689125  0.27106998     0.00900
C22         C  0.70751348  0.27908454  0.24422843    -0.11300
C23         C  0.70049382  0.29161025  0.21699831     0.03400
C24         C  0.68109288  0.31267337  0.21692760    -0.10700
H25         H  0.66382267  0.31306289  0.29081982     0.09000
H26         H  0.72282617  0.26304123  0.24447108     0.06500
H27         H  0.67581016  0.32264242  0.19606294     0.06300
C28         C  0.79572102  0.18144812  0.49399622     0.03400
C29         C  0.78184657  0.18767842  0.46732874    -0.12800
C30         C  0.76194621  0.20847971  0.46675089     0.00900
C31         C  0.75476061  0.22147519  0.49380417    -0.11300
C32         C  0.76789155  0.21456435  0.02082017     0.03400
C33         C  0.78895484  0.19515532  0.02044820    -0.10700
H34         H  0.78727279  0.17706870  0.44685166     0.09000
H35         H  0.73916367  0.23726012  0.49380027     0.06500
H36         H  0.79985673  0.19037655  0.04094775     0.06300
C37         C  0.30396490  0.68900601  0.25946663     0.03400
C38         C  0.29001176  0.69580480  0.28602657    -0.12800
C39         C  0.27054366  0.71701521  0.28641595     0.00900
C40         C  0.26392820  0.73007232  0.25925292    -0.11300
C41         C  0.27695254  0.72261645  0.23227637     0.03400
C42         C  0.29760155  0.70272884  0.23287857    -0.10700
H43         H  0.29478209  0.68499300  0.30651123     0.09000
H44         H  0.24856691  0.74601885  0.25906840     0.06500
H45         H  0.30822156  0.69730044  0.21232840     0.06300
C46         C  0.17229688  0.82694761  0.51109818     0.03400
C47         C  0.17866114  0.81468451  0.48355798    -0.12800
C48         C  0.19880555  0.79429951  0.48180776     0.00900
C49         C  0.21184193  0.78553922  0.50826626    -0.11300
C50         C  0.20536808  0.79749771  0.03609791     0.03400
C51         C  0.18605776  0.81871291  0.03710710    -0.10700
H52         H  0.16798225  0.82106431  0.46346945     0.09000
H53         H  0.22688328  0.76923127  0.50720701     0.06500
H54         H  0.18101574  0.82818551  0.05835491     0.06300
O55         O  0.95761474  0.97873472  0.03386460    -0.74200
O56         O  0.01088428  0.03663199  0.03418132    -0.74200
O57         O  0.95531965  0.03364068  0.03123706    -0.74300
O58         O  0.01372569  0.98140725  0.03676531    -0.74300
O59         O  0.01417501  0.97786819  0.48725219    -0.74300
O60         O  0.95923974  0.03316235  0.48163398    -0.74200
O61         O  0.01470362  0.03304384  0.48464359    -0.74200
O62         O  0.95915307  0.97756783  0.48424895    -0.74300
Ni63       Ni  0.98431849  0.00762998  0.03582031     1.25400
Ni64       Ni  0.98685771  0.00537318  0.48270413     1.25400
C65         C  0.94939192  0.96850380  0.50896750     0.88000
C66         C  0.02174252  0.04433502  0.50940286     0.87900
C67         C  0.94797866  0.04250704  0.00547597     0.87900
C68         C  0.02353935  0.97069276  0.01281174     0.88100
O69         O  0.45511635  0.52754405  0.27038504    -0.74200
O70         O  0.51312608  0.47535274  0.26665800    -0.74200
O71         O  0.51092527  0.53052804  0.27154747    -0.74300
O72         O  0.45779319  0.47267001  0.26522372    -0.74300
O73         O  0.45754211  0.47769465  0.21564886    -0.74300
O74         O  0.51350707  0.53240525  0.22203116    -0.74200
O75         O  0.51352685  0.47798220  0.21723115    -0.74200
O76         O  0.45772119  0.53319072  0.22117218    -0.74300
Ni77       Ni  0.48419545  0.50143000  0.27021024     1.25400
Ni78       Ni  0.48547581  0.50544433  0.21723769     1.25400
C79         C  0.44712265  0.53961109  0.24657115     0.88000
C80         C  0.52318636  0.46788502  0.24147388     0.87900
C81         C  0.52163546  0.54066812  0.24773918     0.87900
C82         C  0.44893225  0.46557574  0.23930236     0.88100
C83         C  0.17884297  0.17839065  0.49310476     0.03400
C84         C  0.19375317  0.18459997  0.01911278    -0.12800
C85         C  0.21794054  0.20004162  0.01749893     0.00900
C86         C  0.22750209  0.20899495  0.48948013    -0.11300
C87         C  0.21259241  0.20347795  0.46312252     0.03400
C88         C  0.18801700  0.18830898  0.46521443    -0.10700
H89         H  0.18653577  0.17730077  0.04072178     0.09000
H90         H  0.24651351  0.22047657  0.48825535     0.06500
H91         H  0.17629236  0.18382082  0.44515779     0.06300
C92         C  0.32306749  0.30109025  0.23867183     0.03400
C93         C  0.31550031  0.28718638  0.21231268    -0.12800
C94         C  0.29867324  0.26385772  0.21343600     0.00900
C95         C  0.29010828  0.25410012  0.24156141    -0.11300
C96         C  0.29654379  0.26835100  0.26792985     0.03400
C97         C  0.31296155  0.29180506  0.26639153    -0.10700
H98         H  0.32238796  0.29483819  0.19080885     0.09000
H99         H  0.27745267  0.23594044  0.24288351     0.06500
H100        H  0.31771349  0.30292288  0.28674497     0.06300
C101        C  0.28447854  0.25957099  0.29688394     0.01600
C102        C  0.29956619  0.24301166  0.31667896     0.04400
C103        C  0.28767503  0.23433592  0.34388046    -0.11700
C104        C  0.26010429  0.24096764  0.35063359     0.23700
C105        C  0.24490484  0.25714785  0.33049301    -0.12200
C106        C  0.25742833  0.26729145  0.30434705     0.05100
C107        C  0.24723468  0.23140343  0.37908321     0.27500
C108        C  0.23994745  0.20382807  0.38267538    -0.12900
C109        C  0.22933918  0.19453658  0.41025000     0.05600
C110        C  0.22327774  0.21321410  0.43353540    -0.08900
C111        C  0.22884533  0.24119234  0.42890293     0.06400
C112        C  0.24212927  0.24995221  0.40255592    -0.13300
Br113      Br  0.20667290  0.26491213  0.33835469    -0.05300
Br114      Br  0.33644247  0.23212982  0.30635336     0.00300
Br115      Br  0.22527718  0.15593471  0.41635735     0.00800
Br116      Br  0.25410709  0.28732545  0.39892104    -0.03700
Br117      Br  0.23795452  0.29285943  0.27947713     0.00900
Br118      Br  0.30924519  0.21366336  0.37209339    -0.03000
Br119      Br  0.24440709  0.17878000  0.34961054    -0.03800
Br120      Br  0.21683204  0.26809999  0.45748094     0.00200
C121        C  0.28876101  0.25071039  0.18515126     0.01600
C122        C  0.26021083  0.24744972  0.17986236     0.04400
C123        C  0.25084252  0.23566986  0.15299385    -0.11700
C124        C  0.26952771  0.22948657  0.12986583     0.23700
C125        C  0.29794303  0.23276040  0.13478645    -0.12200
C126        C  0.30759430  0.24230749  0.16272782     0.05100
C127        C  0.25873363  0.22193560  0.09976373     0.27500
C128        C  0.25917901  0.19468738  0.08971678    -0.12900
C129        C  0.24695321  0.18769482  0.06208566     0.05600
C130        C  0.23275731  0.20757803  0.04536130    -0.08900
C131        C  0.23183214  0.23464528  0.05584831     0.06400
C132        C  0.24581295  0.24201938  0.08218258    -0.13300
Br133      Br  0.32352170  0.22520581  0.10275617    -0.05300
Br134      Br  0.23320826  0.26146483  0.20752412     0.00300
Br135      Br  0.24959149  0.15092273  0.04711242     0.00800
Br136      Br  0.24674239  0.27970456  0.09464767    -0.03700
Br137      Br  0.34666587  0.24301660  0.17026163     0.00900
Br138      Br  0.21205606  0.22864691  0.14729533    -0.03000
Br139      Br  0.27545076  0.16684042  0.11440226    -0.03800
Br140      Br  0.20921708  0.26119261  0.03591410     0.00200
C141        C  0.42888731  0.44271464  0.23676480     0.01600
C142        C  0.40602927  0.44125708  0.25635081     0.04400
C143        C  0.38826526  0.41855393  0.25551275    -0.11700
C144        C  0.39290491  0.39727892  0.23491121     0.23700
C145        C  0.41495520  0.39913513  0.21453735    -0.12200
C146        C  0.43302287  0.42160168  0.21555475     0.05100
C147        C  0.37514102  0.37252302  0.23537615     0.27500
C148        C  0.38308613  0.34965791  0.25230278    -0.12900
C149        C  0.36654492  0.32608004  0.25263794     0.05600
C150        C  0.34111962  0.32566248  0.23724857    -0.08900
C151        C  0.33302070  0.34884365  0.22065692     0.06400
C152        C  0.35030957  0.37187753  0.21916971    -0.13300
Br153      Br  0.42046195  0.37049469  0.18545607    -0.05300
Br154      Br  0.39815418  0.47079502  0.28366506     0.00300
Br155      Br  0.37962571  0.29398040  0.27305369     0.00800
Br156      Br  0.34011620  0.40272776  0.19491547    -0.03700
Br157      Br  0.46436909  0.42213042  0.18899893     0.00900
Br158      Br  0.35753214  0.41630549  0.28278561    -0.03000
Br159      Br  0.41666948  0.35089223  0.27529395    -0.03800
Br160      Br  0.29760470  0.34989420  0.20117611     0.00200
C161        C  0.04278198  0.06646817  0.50917345     0.01600
C162        C  0.06354277  0.06761770  0.03142494     0.04400
C163        C  0.08414050  0.08782258  0.03009511    -0.11700
C164        C  0.08498454  0.10626579  0.50594823     0.23700
C165        C  0.06413286  0.10555707  0.48409036    -0.12200
C166        C  0.04274881  0.08624486  0.48605845     0.05100
C167        C  0.10880487  0.12512226  0.00243632     0.27500
C168        C  0.10674639  0.15272836  0.01093053    -0.12900
C169        C  0.12935958  0.17040367  0.00702461     0.05600
C170        C  0.15434120  0.16040990  0.49527838    -0.08900
C171        C  0.15652666  0.13265489  0.48750571     0.06400
C172        C  0.13372549  0.11521151  0.49054583    -0.13300
Br173      Br  0.06546004  0.13066434  0.45085225    -0.05300
Br174      Br  0.06548142  0.04049790  0.06268135     0.00300
Br175      Br  0.12623162  0.20831953  0.01779049     0.00800
Br176      Br  0.13664221  0.07750619  0.47865953    -0.03700
Br177      Br  0.01287090  0.08805291  0.45759663     0.00900
Br178      Br  0.11181888  0.09001661  0.06101653    -0.03000
Br179      Br  0.07312195  0.16604430  0.02853181    -0.03800
Br180      Br  0.19125750  0.11803518  0.47439928    -0.02000
C181        C  0.15037429  0.84772725  0.01292691     0.01600
C182        C  0.12258299  0.83982133  0.51059108     0.04400
C183        C  0.10168183  0.85958487  0.51157584    -0.11700
C184        C  0.10849063  0.88727962  0.01545014     0.23700
C185        C  0.13624715  0.89507822  0.01863821    -0.12200
C186        C  0.15716465  0.87536987  0.01711353     0.05100
C187        C  0.08665501  0.90840466  0.51504442     0.27500
C188        C  0.08268442  0.92411616  0.48912530    -0.12900
C189        C  0.06338437  0.94542050  0.48903393     0.05600
C190        C  0.04586738  0.94970964  0.01421738    -0.08900
C191        C  0.04969421  0.93323715  0.04012071     0.06400
C192        C  0.07057462  0.91334033  0.04068516    -0.13300
Br193      Br  0.14550506  0.93288807  0.02490161    -0.05300
Br194      Br  0.11318449  0.80179105  0.50663213     0.00300
Br195      Br  0.06335812  0.96950475  0.45467907     0.00800
Br196      Br  0.07758581  0.89274224  0.07676017    -0.03700
Br197      Br  0.19518141  0.88631070  0.01981330     0.00900
Br198      Br  0.06373796  0.84882042  0.50719469    -0.03000
Br199      Br  0.10394196  0.91617876  0.45349849    -0.03800
Br200      Br  0.02630898  0.93636565  0.07500119     0.00200
C201        C  0.32504919  0.66720815  0.25902928     0.01600
C202        C  0.31711472  0.63967871  0.26154342     0.04400
C203        C  0.33700872  0.61892912  0.25977914    -0.11700
C204        C  0.36482627  0.62553233  0.25459799     0.23700
C205        C  0.37276433  0.65304607  0.25195709    -0.12200
C206        C  0.35298883  0.67383902  0.25454509     0.05100
C207        C  0.38578945  0.60355144  0.25246833     0.27500
C208        C  0.40238978  0.59751861  0.27734961    -0.12900
C209        C  0.42267757  0.57713170  0.27540769     0.05600
C210        C  0.42568204  0.56145075  0.24868659    -0.08900
C211        C  0.40806826  0.56711552  0.22405720     0.06400
C212        C  0.38889841  0.58858800  0.22575350    -0.13300
Br213      Br  0.41078062  0.66213809  0.24459299    -0.05300
Br214      Br  0.27881251  0.63031735  0.26613480     0.00300
Br215      Br  0.44671001  0.57244804  0.30958974     0.00800
Br216      Br  0.36678537  0.59787190  0.19130337    -0.03700
Br217      Br  0.36425373  0.71148340  0.25260604     0.00900
Br218      Br  0.32626986  0.58136331  0.26459400    -0.03000
Br219      Br  0.39707994  0.61750481  0.31430187    -0.03800
Br220      Br  0.40821684  0.54478001  0.18830340     0.00200
C221        C  0.21750249  0.78710262  0.06452565     0.01600
C222        C  0.24620485  0.78794415  0.06946157     0.04400
C223        C  0.25732291  0.77796634  0.09652021    -0.11700
C224        C  0.23976824  0.76837071  0.11938268     0.23700
C225        C  0.21110558  0.76840557  0.11486500    -0.12200
C226        C  0.20008553  0.77677361  0.08723697     0.05100
C227        C  0.25115247  0.75686451  0.14765997     0.27500
C228        C  0.25088147  0.72846567  0.15206874    -0.12900
C229        C  0.25844737  0.71744093  0.17995567     0.05600
C230        C  0.26830501  0.73460475  0.20309808    -0.08900
C231        C  0.26986466  0.76298707  0.19810787     0.06400
C232        C  0.26052401  0.77411883  0.17081482    -0.13300
Br233      Br  0.18686547  0.75697842  0.14680594    -0.05300
Br234      Br  0.27033395  0.80363221  0.03975446     0.00300
Br235      Br  0.25333246  0.67890865  0.18679094     0.00800
Br236      Br  0.25977330  0.81306934  0.16538442    -0.03700
Br237      Br  0.16116229  0.77230391  0.08008497     0.00900
Br238      Br  0.29662337  0.77703626  0.10220474    -0.03000
Br239      Br  0.23973891  0.70464014  0.11976763    -0.03800
Br240      Br  0.28571455  0.78665593  0.22807341     0.00200
C241        C  0.25788288  0.72625359  0.31529395     0.01600
C242        C  0.27480610  0.73460188  0.33946325     0.04400
C243        C  0.26297204  0.74365478  0.36652289    -0.11700
C244        C  0.23427786  0.74683899  0.36896845     0.23700
C245        C  0.21729314  0.73904940  0.34482502    -0.12200
C246        C  0.22894478  0.72770424  0.31862134     0.05100
C247        C  0.22247407  0.75928608  0.39668648     0.27500
C248        C  0.21012972  0.74285974  0.41886745    -0.12900
C249        C  0.20156492  0.75443152  0.44629769     0.05600
C250        C  0.20624519  0.78231994  0.45220289    -0.08900
C251        C  0.21812080  0.79883308  0.42972173     0.06400
C252        C  0.22561633  0.78745731  0.40188043    -0.13300
Br253      Br  0.17811674  0.74472084  0.34738527    -0.05300
Br254      Br  0.31432889  0.73587236  0.33526613     0.00300
Br255      Br  0.18271464  0.73217272  0.47544255     0.00800
Br256      Br  0.24071880  0.81038761  0.37081614    -0.03700
Br257      Br  0.20500051  0.71294686  0.28812842     0.00900
Br258      Br  0.28614256  0.75194686  0.40051266    -0.03000
Br259      Br  0.20570645  0.70432202  0.41198628    -0.03800
Br260      Br  0.22574594  0.83679713  0.43751395     0.00200
C261        C  0.92619786  0.06376510  0.00333874     0.01600
C262        C  0.92349897  0.08381974  0.02612629     0.04400
C263        C  0.90171044  0.10262958  0.02521502    -0.11700
C264        C  0.88356667  0.10284659  0.50070618     0.23700
C265        C  0.88678913  0.08389640  0.47733057    -0.12200
C266        C  0.90764616  0.06412878  0.47876723     0.05100
C267        C  0.86108568  0.12313659  0.99927746     0.27500
C268        C  0.83407416  0.11550642  0.00701920    -0.12900
C269        C  0.81245352  0.13425279  0.00391722     0.05600
C270        C  0.81800174  0.16107361  0.99453077    -0.08900
C271        C  0.84520230  0.16900904  0.48799593     0.06400
C272        C  0.86662237  0.14989328  0.48965566    -0.13300
Br273      Br  0.86221089  0.08509420  0.44330474    -0.05300
Br274      Br  0.95052373  0.08750946  0.05765539     0.00300
Br275      Br  0.77523576  0.12322870  0.01250207     0.00800
Br276      Br  0.90362967  0.16033692  0.47904174    -0.03700
Br277      Br  0.90935302  0.03733739  0.44710529     0.00900
Br278      Br  0.89625441  0.12803732  0.05778997    -0.03000
Br279      Br  0.82698627  0.07959245  0.02271382    -0.03800
Br280      Br  0.85333103  0.20633868  0.47811028     0.00200
C281        C  0.64681090  0.34197352  0.24279262     0.01600
C282        C  0.61872769  0.33533972  0.24563372     0.04400
C283        C  0.59881832  0.35604396  0.24480825    -0.11700
C284        C  0.60693934  0.38330245  0.24057742     0.23700
C285        C  0.63496014  0.38987306  0.23721488    -0.12200
C286        C  0.65491318  0.36927143  0.23870290     0.05100
C287        C  0.58607873  0.40522773  0.24049807     0.27500
C288        C  0.57326503  0.41282213  0.21363438    -0.12900
C289        C  0.55357679  0.43384874  0.21340339     0.05600
C290        C  0.54593981  0.44715323  0.24068005    -0.08900
C291        C  0.56016908  0.43988644  0.26753783     0.06400
C292        C  0.57977736  0.41884734  0.26726833    -0.13300
Br293      Br  0.64585104  0.42716026  0.23054339    -0.05300
Br294      Br  0.60752420  0.29783685  0.24985292     0.00300
Br295      Br  0.53847076  0.44373470  0.17478923     0.00800
Br296      Br  0.59842488  0.40828442  0.30376764    -0.03700
Br297      Br  0.69341546  0.37851011  0.23611473     0.00900
Br298      Br  0.56038975  0.34725037  0.24946614    -0.03000
Br299      Br  0.58295137  0.39388135  0.17706336    -0.03800
Br300      Br  0.55514582  0.45898730  0.30520703     0.00200
C301        C  0.71203773  0.28172790  0.18821307     0.01600
C302        C  0.74048803  0.28365826  0.18226071     0.04400
C303        C  0.75121915  0.27340752  0.15515414    -0.11700
C304        C  0.73337156  0.26253256  0.13329885     0.23700
C305        C  0.70485394  0.26162699  0.13876020    -0.12200
C306        C  0.69430888  0.27039525  0.16644222     0.05100
C307        C  0.74433289  0.25056693  0.10516143     0.27500
C308        C  0.75252214  0.26738960  0.08118335    -0.12900
C309        C  0.76112050  0.25569703  0.05388225     0.05600
C310        C  0.75963958  0.22719177  0.04974804    -0.08900
C311        C  0.75086600  0.21049391  0.07373986     0.06400
C312        C  0.74452448  0.22208263  0.10169025    -0.13300
Br313      Br  0.68019664  0.24806595  0.10821972    -0.05300
Br314      Br  0.76464752  0.30115536  0.21069033     0.00300
Br315      Br  0.77591957  0.27879030  0.02280158     0.00800
Br316      Br  0.73578363  0.19894251  0.13539881    -0.03700
Br317      Br  0.65568221  0.26530526  0.17498143     0.00900
Br318      Br  0.79036997  0.27360107  0.14818974    -0.03000
Br319      Br  0.75128536  0.30645413  0.08556801    -0.03800
Br320      Br  0.74536027  0.17188463  0.06811389     0.00200
C321        C  0.75013578  0.21788246  0.43765937     0.01600
C322        C  0.76785579  0.22670813  0.41440691     0.04400
C323        C  0.75704359  0.23530754  0.38681896    -0.11700
C324        C  0.72846988  0.23788684  0.38307177     0.23700
C325        C  0.71059487  0.22991690  0.40634594    -0.12200
C326        C  0.72132730  0.21898382  0.43313877     0.05100
C327        C  0.71771442  0.25045232  0.35515074     0.27500
C328        C  0.72034321  0.27877077  0.35092432    -0.12900
C329        C  0.71339264  0.29052648  0.32323242     0.05600
C330        C  0.70232647  0.27423696  0.30004888    -0.08900
C331        C  0.69871831  0.24600446  0.30471746     0.06400
C332        C  0.70699157  0.23407471  0.33195943    -0.13300
Br333      Br  0.67147153  0.23475199  0.40167932    -0.05300
Br334      Br  0.80694370  0.22988825  0.42070470     0.00300
Br335      Br  0.72087326  0.32869463  0.31659070     0.00800
Br336      Br  0.70453678  0.19517222  0.33724864    -0.03700
Br337      Br  0.69635054  0.20483905  0.46297202     0.00900
Br338      Br  0.78145628  0.24399721  0.35396286    -0.03000
Br339      Br  0.73410582  0.30138479  0.38306982    -0.03800
Br340      Br  0.68178723  0.22366459  0.27421251     0.00200
C341        C  0.82745526  0.84006943  0.50556508     0.01600
C342        C  0.85541218  0.83391933  0.00073738     0.04400
C343        C  0.87528460  0.85471852  0.00195225    -0.11700
C344        C  0.86734398  0.88168783  0.50845994     0.23700
C345        C  0.83942397  0.88776153  0.51374190    -0.12200
C346        C  0.81949093  0.86701444  0.51212113     0.05100
C347        C  0.88824961  0.90379875  0.00872672     0.27500
C348        C  0.90506425  0.90781618  0.03395063    -0.12900
C349        C  0.92539649  0.92832032  0.03387787     0.05600
C350        C  0.92843555  0.94593721  0.50872976    -0.08900
C351        C  0.91125387  0.94147722  0.48329524     0.06400
C352        C  0.89157800  0.92038727  0.48336831    -0.13300
Br353      Br  0.82857767  0.92458975  0.52304156    -0.05300
Br354      Br  0.86656356  0.79681043  0.99327585     0.00300
Br355      Br  0.94985930  0.93010748  0.06795386     0.00800
Br356      Br  0.86892864  0.91377473  0.44844818    -0.03700
Br357      Br  0.78116520  0.87556819  0.51809906     0.00900
Br358      Br  0.91342560  0.84637007  0.99445580    -0.03000
Br359      Br  0.90009002  0.88479467  0.06866329    -0.03800
Br360      Br  0.91330273  0.96389646  0.44780926     0.00200
C361        C  0.65605628  0.65644573  0.25246569     0.01600
C362        C  0.66110817  0.62853774  0.24773085     0.04400
C363        C  0.63905345  0.60994695  0.24679333    -0.11700
C364        C  0.61189308  0.61909647  0.25144837     0.23700
C365        C  0.60687893  0.64705882  0.25621669    -0.12200
C366        C  0.62886654  0.66572987  0.25619186     0.05100
C367        C  0.58856340  0.59941388  0.25086230     0.27500
C368        C  0.57178754  0.59745394  0.22531545    -0.12900
C369        C  0.54906245  0.57962060  0.22496499     0.05600
C370        C  0.54404351  0.56174903  0.24953486    -0.08900
C371        C  0.56159285  0.56353861  0.27501602     0.06400
C372        C  0.58313096  0.58281893  0.27585246    -0.13300
Br373      Br  0.56982642  0.65972991  0.26281414    -0.05300
Br374      Br  0.69831597  0.61590200  0.24244230     0.00300
Br375      Br  0.52450646  0.58163744  0.19090437     0.00800
Br376      Br  0.60566732  0.58658458  0.31130242    -0.03700
Br377      Br  0.62173508  0.70415476  0.26042803     0.00900
Br378      Br  0.64591675  0.57199113  0.23856611    -0.03000
Br379      Br  0.58054764  0.61908049  0.19038117    -0.03800
Br380      Br  0.55804712  0.53902584  0.30867280     0.00200
C381        C  0.72344267  0.71332375  0.31039882     0.01600
C382        C  0.70560131  0.72547695  0.33158268     0.04400
C383        C  0.71602238  0.73561383  0.35881752    -0.11700
C384        C  0.74460425  0.73598265  0.36406913     0.23700
C385        C  0.76258972  0.72476970  0.34252102    -0.12200
C386        C  0.75197734  0.71243613  0.31641824     0.05100
C387        C  0.75550149  0.74849545  0.39211496     0.27500
C388        C  0.75377925  0.77689896  0.39643206    -0.12900
C389        C  0.76068974  0.78842210  0.42434442     0.05600
C390        C  0.77228384  0.77205789  0.44711026    -0.08900
C391        C  0.77591288  0.74388416  0.44188157     0.06400
C392        C  0.76633681  0.73199007  0.41509038    -0.13300
Br393      Br  0.80185357  0.72714482  0.34828044    -0.05300
Br394      Br  0.66709085  0.73043970  0.32271260     0.00300
Br395      Br  0.75209831  0.82621568  0.43187555     0.00800
Br396      Br  0.76726984  0.69292430  0.41029647    -0.03700
Br397      Br  0.77661089  0.69346487  0.28960223     0.00900
Br398      Br  0.69099604  0.74911327  0.38905480    -0.03000
Br399      Br  0.74197536  0.80007082  0.36394994    -0.03800
Br400      Br  0.79512635  0.72156122  0.47065188     0.00200
C401        C  0.76756639  0.77410293  0.05972447     0.01600
C402        C  0.73923278  0.77248720  0.06651539     0.04400
C403        C  0.73050828  0.76089033  0.09376372    -0.11700
C404        C  0.75000576  0.75213094  0.11501536     0.23700
C405        C  0.77826577  0.75424418  0.10859187    -0.12200
C406        C  0.78702146  0.76435025  0.08068339     0.05100
C407        C  0.74071284  0.74051892  0.14403266     0.27500
C408        C  0.73096815  0.75782944  0.16689370    -0.12900
C409        C  0.72023420  0.74674844  0.19352131     0.05600
C410        C  0.72100734  0.71831790  0.19832094    -0.08900
C411        C  0.73223377  0.70114401  0.17600402     0.06400
C412        C  0.74123054  0.71214842  0.14858901    -0.13300
Br413      Br  0.80498200  0.74354201  0.13831155    -0.05300
Br414      Br  0.71223944  0.78718728  0.03929110     0.00300
Br415      Br  0.70318252  0.77060371  0.22253760     0.00800
Br416      Br  0.75411790  0.68836220  0.11706709    -0.03700
Br417      Br  0.82570011  0.76328299  0.07078910     0.00900
Br418      Br  0.69176387  0.75677221  0.10206013    -0.03000
Br419      Br  0.73275665  0.79680607  0.16175681    -0.03800
Br420      Br  0.73670009  0.66267718  0.18335852     0.00200
C421        C  0.67920441  0.67603980  0.75310520     0.03400
C422        C  0.69142223  0.68339577  0.78045781    -0.12800
C423        C  0.71242397  0.70310751  0.78131485     0.00900
C424        C  0.72200442  0.71424554  0.75428269    -0.11300
C425        C  0.71041555  0.70655709  0.72674083     0.03400
C426        C  0.68862697  0.68777803  0.72637303    -0.10700
H427        H  0.68407558  0.67436493  0.80108289     0.09000
H428        H  0.73836639  0.72932610  0.75469353     0.06500
H429        H  0.67908443  0.68221829  0.70529934     0.06300
C430        C  0.80667936  0.81808009  0.00454077     0.03400
C431        C  0.79506893  0.80846372  0.53123745    -0.12800
C432        C  0.77708155  0.78611840  0.53095874     0.00900
C433        C  0.76943571  0.77452224  0.00337227    -0.11300
C434        C  0.78044217  0.78439206  0.97630688     0.03400
C435        C  0.79950318  0.80588941  0.97719611    -0.10700
H436        H  0.80084849  0.81770973  0.55231683     0.09000
H437        H  0.75524235  0.75749318  0.00299311     0.06500
H438        H  0.80882111  0.81313849  0.95657720     0.06300
C439        C  0.66775398  0.32029174  0.74343149     0.03400
C440        C  0.67424914  0.30719189  0.77036881    -0.12800
C441        C  0.69452423  0.28689124  0.77106997     0.00900
C442        C  0.70751346  0.27908455  0.74422843    -0.11300
C443        C  0.70049384  0.29161026  0.71699831     0.03400
C444        C  0.68109290  0.31267337  0.71692759    -0.10700
H445        H  0.66382269  0.31306285  0.79081971     0.09000
H446        H  0.72282623  0.26304115  0.74447108     0.06500
H447        H  0.67581020  0.32264243  0.69606293     0.06300
C448        C  0.79572101  0.18144813  0.99399621     0.03400
C449        C  0.78184656  0.18767840  0.96732871    -0.12800
C450        C  0.76194618  0.20847970  0.96675088     0.00900
C451        C  0.75476061  0.22147516  0.99380416    -0.11300
C452        C  0.76789156  0.21456434  0.52082018     0.03400
C453        C  0.78895484  0.19515531  0.52044822    -0.10700
H454        H  0.78727275  0.17706874  0.94685173     0.09000
H455        H  0.73916356  0.23726020  0.99380027     0.06500
H456        H  0.79985672  0.19037652  0.54094778     0.06300
C457        C  0.30396490  0.68900603  0.75946662     0.03400
C458        C  0.29001175  0.69580480  0.78602657    -0.12800
C459        C  0.27054364  0.71701522  0.78641593     0.00900
C460        C  0.26392819  0.73007232  0.75925290    -0.11300
C461        C  0.27695255  0.72261646  0.73227635     0.03400
C462        C  0.29760156  0.70272886  0.73287856    -0.10700
H463        H  0.29478206  0.68499303  0.80651117     0.09000
H464        H  0.24856687  0.74601888  0.75906837     0.06500
H465        H  0.30822158  0.69730046  0.71232839     0.06300
C466        C  0.17229688  0.82694760  0.01109819     0.03400
C467        C  0.17866114  0.81468450  0.98355798    -0.12800
C468        C  0.19880555  0.79429947  0.98180778     0.00900
C469        C  0.21184189  0.78553919  0.00826629    -0.11300
C470        C  0.20536810  0.79749775  0.53609788     0.03400
C471        C  0.18605778  0.81871293  0.53710707    -0.10700
H472        H  0.16798231  0.82106428  0.96346953     0.09000
H473        H  0.22688327  0.76923119  0.00720705     0.06500
H474        H  0.18101574  0.82818555  0.55835495     0.06300
O475        O  0.95761473  0.97873472  0.53386458    -0.74200
O476        O  0.01088428  0.03663197  0.53418132    -0.74200
O477        O  0.95531965  0.03364068  0.53123707    -0.74300
O478        O  0.01372568  0.98140724  0.53676530    -0.74300
O479        O  0.01417501  0.97786818  0.98725220    -0.74300
O480        O  0.95923975  0.03316235  0.98163397    -0.74200
O481        O  0.01470363  0.03304383  0.98464359    -0.74200
O482        O  0.95915308  0.97756783  0.98424897    -0.74300
Ni483      Ni  0.98431848  0.00762997  0.53582031     1.25400
Ni484      Ni  0.98685772  0.00537317  0.98270414     1.25400
C485        C  0.94939193  0.96850380  0.00896752     0.88000
C486        C  0.02174253  0.04433502  0.00940285     0.87900
C487        C  0.94797866  0.04250704  0.50547598     0.87900
C488        C  0.02353935  0.97069276  0.51281172     0.88100
O489        O  0.45511635  0.52754404  0.77038500    -0.74200
O490        O  0.51312611  0.47535277  0.76665798    -0.74200
O491        O  0.51092526  0.53052806  0.77154746    -0.74300
O492        O  0.45779322  0.47267000  0.76522368    -0.74300
O493        O  0.45754214  0.47769465  0.71564882    -0.74300
O494        O  0.51350710  0.53240526  0.72203115    -0.74200
O495        O  0.51352688  0.47798221  0.71723114    -0.74200
O496        O  0.45772121  0.53319073  0.72117214    -0.74300
Ni497      Ni  0.48419546  0.50143001  0.77021021     1.25400
Ni498      Ni  0.48547584  0.50544434  0.71723766     1.25400
C499        C  0.44712266  0.53961108  0.74657111     0.88000
C500        C  0.52318638  0.46788503  0.74147386     0.87900
C501        C  0.52163547  0.54066814  0.74773918     0.87900
C502        C  0.44893229  0.46557573  0.73930231     0.88100
C503        C  0.17884297  0.17839065  0.99310476     0.03400
C504        C  0.19375317  0.18459998  0.51911276    -0.12800
C505        C  0.21794053  0.20004162  0.51749893     0.00900
C506        C  0.22750207  0.20899495  0.98948013    -0.11300
C507        C  0.21259241  0.20347797  0.96312252     0.03400
C508        C  0.18801700  0.18830900  0.96521444    -0.10700
H509        H  0.18653572  0.17730075  0.54072188     0.09000
H510        H  0.24651360  0.22047664  0.98825534     0.06500
H511        H  0.17629232  0.18382084  0.94515775     0.06300
C512        C  0.32306747  0.30109029  0.73867183     0.03400
C513        C  0.31550027  0.28718642  0.71231271    -0.12800
C514        C  0.29867322  0.26385776  0.71343600     0.00900
C515        C  0.29010828  0.25410014  0.74156141    -0.11300
C516        C  0.29654380  0.26835100  0.76792985     0.03400
C517        C  0.31296155  0.29180508  0.76639155    -0.10700
H518        H  0.32238795  0.29483828  0.69080876     0.09000
H519        H  0.27745269  0.23594045  0.74288351     0.06500
H520        H  0.31771348  0.30292286  0.78674494     0.06300
C521        C  0.28447856  0.25957098  0.79688394     0.01600
C522        C  0.29956623  0.24301166  0.81667896     0.04400
C523        C  0.28767507  0.23433591  0.84388046    -0.11700
C524        C  0.26010433  0.24096764  0.85063360     0.23700
C525        C  0.24490487  0.25714785  0.83049303    -0.12200
C526        C  0.25742835  0.26729145  0.80434706     0.05100
C527        C  0.24723472  0.23140343  0.87908323     0.27500
C528        C  0.23994747  0.20382808  0.88267539    -0.12900
C529        C  0.22933917  0.19453659  0.91025000     0.05600
C530        C  0.22327774  0.21321411  0.93353540    -0.08900
C531        C  0.22884534  0.24119235  0.92890294     0.06400
C532        C  0.24212930  0.24995222  0.90255593    -0.13300
Br533      Br  0.20667294  0.26491213  0.83835472    -0.05300
Br534      Br  0.33644251  0.23212986  0.80635335     0.00300
Br535      Br  0.22527712  0.15593473  0.91635734     0.00800
Br536      Br  0.25410709  0.28732546  0.89892104    -0.03700
Br537      Br  0.23795454  0.29285944  0.77947716     0.00900
Br538      Br  0.30924524  0.21366333  0.87209336    -0.03000
Br539      Br  0.24440705  0.17878001  0.84961053    -0.03800
Br540      Br  0.21683201  0.26810001  0.95748092     0.00200
C541        C  0.28876099  0.25071044  0.68515126     0.01600
C542        C  0.26021081  0.24744977  0.67986236     0.04400
C543        C  0.25084250  0.23566994  0.65299383    -0.11700
C544        C  0.26952770  0.22948662  0.62986582     0.23700
C545        C  0.29794302  0.23276044  0.63478646    -0.12200
C546        C  0.30759429  0.24230754  0.66272782     0.05100
C547        C  0.25873363  0.22193564  0.59976372     0.27500
C548        C  0.25917898  0.19468741  0.58971680    -0.12900
C549        C  0.24695318  0.18769483  0.56208569     0.05600
C550        C  0.23275729  0.20757804  0.54536131    -0.08900
C551        C  0.23183214  0.23464530  0.55584830     0.06400
C552        C  0.24581297  0.24201941  0.58218255    -0.13300
Br553      Br  0.32352171  0.22520579  0.60275621    -0.05300
Br554      Br  0.23320825  0.26146484  0.70752415     0.00300
Br555      Br  0.24959144  0.15092272  0.54711249     0.00800
Br556      Br  0.24674248  0.27970461  0.59464756    -0.03700
Br557      Br  0.34666586  0.24301670  0.67026163     0.00900
Br558      Br  0.21205604  0.22864705  0.64729527    -0.03000
Br559      Br  0.27545071  0.16684046  0.61440233    -0.03800
Br560      Br  0.20921701  0.26119260  0.53591411     0.00200
C561        C  0.42888734  0.44271463  0.73676476     0.01600
C562        C  0.40602930  0.44125707  0.75635076     0.04400
C563        C  0.38826529  0.41855392  0.75551271    -0.11700
C564        C  0.39290494  0.39727891  0.73491117     0.23700
C565        C  0.41495521  0.39913512  0.71453729    -0.12200
C566        C  0.43302290  0.42160167  0.71555469     0.05100
C567        C  0.37514105  0.37252301  0.73537612     0.27500
C568        C  0.38308615  0.34965790  0.75230274    -0.12900
C569        C  0.36654491  0.32608005  0.75263793     0.05600
C570        C  0.34111961  0.32566250  0.73724858    -0.08900
C571        C  0.33302070  0.34884368  0.72065692     0.06400
C572        C  0.35030959  0.37187754  0.71916969    -0.13300
Br573      Br  0.42046190  0.37049472  0.68545596    -0.05300
Br574      Br  0.39815422  0.47079501  0.78366501     0.00300
Br575      Br  0.37962568  0.29398042  0.77305373     0.00800
Br576      Br  0.34011623  0.40272778  0.69491546    -0.03700
Br577      Br  0.46436911  0.42213040  0.68899888     0.00900
Br578      Br  0.35753216  0.41630549  0.78278556    -0.03000
Br579      Br  0.41666955  0.35089217  0.77529382    -0.03800
Br580      Br  0.29760470  0.34989424  0.70117610     0.00200
C581        C  0.04278200  0.06646817  0.00917344     0.01600
C582        C  0.06354278  0.06761769  0.53142493     0.04400
C583        C  0.08414050  0.08782258  0.53009510    -0.11700
C584        C  0.08498455  0.10626579  0.00594825     0.23700
C585        C  0.06413289  0.10555705  0.98409035    -0.12200
C586        C  0.04274885  0.08624484  0.98605842     0.05100
C587        C  0.10880486  0.12512226  0.50243631     0.27500
C588        C  0.10674639  0.15272837  0.51093051    -0.12900
C589        C  0.12935957  0.17040368  0.50702460     0.05600
C590        C  0.15434120  0.16040990  0.99527838    -0.08900
C591        C  0.15652665  0.13265489  0.98750569     0.06400
C592        C  0.13372549  0.11521151  0.99054583    -0.13300
Br593      Br  0.06546010  0.13066432  0.95085223    -0.05300
Br594      Br  0.06548145  0.04049786  0.56268130     0.00300
Br595      Br  0.12623163  0.20831953  0.51779052     0.00800
Br596      Br  0.13664220  0.07750619  0.97865952    -0.03700
Br597      Br  0.01287100  0.08805284  0.95759652     0.00900
Br598      Br  0.11181886  0.09001662  0.56101653    -0.03000
Br599      Br  0.07312194  0.16604430  0.52853180    -0.03800
Br600      Br  0.19125747  0.11803519  0.97439916    -0.02000
C601        C  0.15037429  0.84772726  0.51292691     0.01600
C602        C  0.12258300  0.83982132  0.01059106     0.04400
C603        C  0.10168184  0.85958486  0.01157582    -0.11700
C604        C  0.10849063  0.88727963  0.51545015     0.23700
C605        C  0.13624715  0.89507823  0.51863824    -0.12200
C606        C  0.15716465  0.87536988  0.51711355     0.05100
C607        C  0.08665500  0.90840465  0.01504442     0.27500
C608        C  0.08268442  0.92411616  0.98912531    -0.12900
C609        C  0.06338438  0.94542051  0.98903395     0.05600
C610        C  0.04586737  0.94970964  0.51421736    -0.08900
C611        C  0.04969423  0.93323718  0.54012071     0.06400
C612        C  0.07057465  0.91334038  0.54068517    -0.13300
Br613      Br  0.14550505  0.93288807  0.52490167    -0.05300
Br614      Br  0.11318450  0.80179104  0.00663209     0.00300
Br615      Br  0.06335816  0.96950479  0.95467912     0.00800
Br616      Br  0.07758592  0.89274236  0.57676022    -0.03700
Br617      Br  0.19518140  0.88631071  0.51981335     0.00900
Br618      Br  0.06373797  0.84882041  0.00719462    -0.03000
Br619      Br  0.10394192  0.91617875  0.95349848    -0.03800
Br620      Br  0.02630903  0.93636570  0.57500121     0.00200
C621        C  0.32504920  0.66720816  0.75902927     0.01600
C622        C  0.31711472  0.63967872  0.76154339     0.04400
C623        C  0.33700873  0.61892913  0.75977913    -0.11700
C624        C  0.36482628  0.62553233  0.75459798     0.23700
C625        C  0.37276433  0.65304608  0.75195709    -0.12200
C626        C  0.35298884  0.67383902  0.75454510     0.05100
C627        C  0.38578945  0.60355144  0.75246831     0.27500
C628        C  0.40238979  0.59751860  0.77734959    -0.12900
C629        C  0.42267757  0.57713168  0.77540766     0.05600
C630        C  0.42568205  0.56145075  0.74868655    -0.08900
C631        C  0.40806828  0.56711553  0.72405716     0.06400
C632        C  0.38889841  0.58858800  0.72575348    -0.13300
Br633      Br  0.41078063  0.66213810  0.74459301    -0.05300
Br634      Br  0.27881251  0.63031736  0.76613470     0.00300
Br635      Br  0.44671001  0.57244801  0.80958971     0.00800
Br636      Br  0.36678533  0.59787187  0.69130337    -0.03700
Br637      Br  0.36425374  0.71148340  0.75260607     0.00900
Br638      Br  0.32626987  0.58136332  0.76459402    -0.03000
Br639      Br  0.39707998  0.61750481  0.81430184    -0.03800
Br640      Br  0.40821691  0.54478007  0.68830332     0.00200
C641        C  0.21750250  0.78710264  0.56452562     0.01600
C642        C  0.24620486  0.78794416  0.56946156     0.04400
C643        C  0.25732291  0.77796634  0.59652020    -0.11700
C644        C  0.23976822  0.76837069  0.61938265     0.23700
C645        C  0.21110556  0.76840555  0.61486495    -0.12200
C646        C  0.20008553  0.77677362  0.58723692     0.05100
C647        C  0.25115243  0.75686450  0.64765995     0.27500
C648        C  0.25088144  0.72846566  0.65206872    -0.12900
C649        C  0.25844737  0.71744092  0.67995565     0.05600
C650        C  0.26830501  0.73460475  0.70309806    -0.08900
C651        C  0.26986467  0.76298706  0.69810783     0.06400
C652        C  0.26052399  0.77411883  0.67081479    -0.13300
Br653      Br  0.18686543  0.75697840  0.64680587    -0.05300
Br654      Br  0.27033398  0.80363225  0.53975448     0.00300
Br655      Br  0.25333251  0.67890863  0.68679091     0.00800
Br656      Br  0.25977326  0.81306933  0.66538439    -0.03700
Br657      Br  0.16116229  0.77230392  0.58008488     0.00900
Br658      Br  0.29662336  0.77703626  0.60220477    -0.03000
Br659      Br  0.23973887  0.70464013  0.61976762    -0.03800
Br660      Br  0.28571464  0.78665592  0.72807332     0.00200
C661        C  0.25788286  0.72625359  0.81529394     0.01600
C662        C  0.27480607  0.73460189  0.83946324     0.04400
C663        C  0.26297202  0.74365479  0.86652288    -0.11700
C664        C  0.23427783  0.74683899  0.86896845     0.23700
C665        C  0.21729311  0.73904936  0.84482502    -0.12200
C666        C  0.22894476  0.72770422  0.81862133     0.05100
C667        C  0.22247405  0.75928608  0.89668648     0.27500
C668        C  0.21012971  0.74285972  0.91886746    -0.12900
C669        C  0.20156490  0.75443150  0.94629770     0.05600
C670        C  0.20624519  0.78231992  0.95220292    -0.08900
C671        C  0.21812080  0.79883306  0.92972176     0.06400
C672        C  0.22561631  0.78745731  0.90188044    -0.13300
Br673      Br  0.17811669  0.74472070  0.84738533    -0.05300
Br674      Br  0.31432886  0.73587235  0.83526613     0.00300
Br675      Br  0.18271460  0.73217270  0.97544253     0.00800
Br676      Br  0.24071875  0.81038762  0.87081616    -0.03700
Br677      Br  0.20500049  0.71294683  0.78812841     0.00900
Br678      Br  0.28614253  0.75194686  0.90051265    -0.03000
Br679      Br  0.20570648  0.70432201  0.91198628    -0.03800
Br680      Br  0.22574601  0.83679709  0.93751403     0.00200
C681        C  0.92619786  0.06376510  0.50333875     0.01600
C682        C  0.92349894  0.08381972  0.52612632     0.04400
C683        C  0.90171041  0.10262956  0.52521504    -0.11700
C684        C  0.88356667  0.10284659  0.00070619     0.23700
C685        C  0.88678911  0.08389639  0.97733058    -0.12200
C686        C  0.90764613  0.06412876  0.97876724     0.05100
C687        C  0.86108568  0.12313658  0.49927745     0.27500
C688        C  0.83407416  0.11550641  0.50701917    -0.12900
C689        C  0.81245352  0.13425278  0.50391722     0.05600
C690        C  0.81800175  0.16107360  0.49453078    -0.08900
C691        C  0.84520229  0.16900904  0.98799593     0.06400
C692        C  0.86662237  0.14989329  0.98965566    -0.13300
Br693      Br  0.86221083  0.08509416  0.94330479    -0.05300
Br694      Br  0.95052367  0.08750944  0.55765546     0.00300
Br695      Br  0.77523577  0.12322871  0.51250210     0.00800
Br696      Br  0.90362967  0.16033693  0.97904174    -0.03700
Br697      Br  0.90935298  0.03733736  0.94710531     0.00900
Br698      Br  0.89625434  0.12803728  0.55779000    -0.03000
Br699      Br  0.82698626  0.07959242  0.52271372    -0.03800
Br700      Br  0.85333103  0.20633869  0.97811030     0.00200
C701        C  0.64681089  0.34197351  0.74279258     0.01600
C702        C  0.61872768  0.33533971  0.74563372     0.04400
C703        C  0.59881831  0.35604395  0.74480826    -0.11700
C704        C  0.60693933  0.38330244  0.74057741     0.23700
C705        C  0.63496013  0.38987305  0.73721485    -0.12200
C706        C  0.65491317  0.36927141  0.73870284     0.05100
C707        C  0.58607872  0.40522771  0.74049807     0.27500
C708        C  0.57326502  0.41282212  0.71363438    -0.12900
C709        C  0.55357681  0.43384874  0.71340338     0.05600
C710        C  0.54593983  0.44715324  0.74068005    -0.08900
C711        C  0.56016909  0.43988644  0.76753783     0.06400
C712        C  0.57977737  0.41884734  0.76726833    -0.13300
Br713      Br  0.64585102  0.42716026  0.73054341    -0.05300
Br714      Br  0.60752419  0.29783684  0.74985294     0.00300
Br715      Br  0.53847081  0.44373473  0.67478921     0.00800
Br716      Br  0.59842493  0.40828445  0.80376763    -0.03700
Br717      Br  0.69341544  0.37851010  0.73611458     0.00900
Br718      Br  0.56038974  0.34725037  0.74946617    -0.03000
Br719      Br  0.58295131  0.39388129  0.67706337    -0.03800
Br720      Br  0.55514579  0.45898726  0.80520705     0.00200
C721        C  0.71203775  0.28172791  0.68821307     0.01600
C722        C  0.74048804  0.28365827  0.68226071     0.04400
C723        C  0.75121917  0.27340754  0.65515414    -0.11700
C724        C  0.73337157  0.26253258  0.63329884     0.23700
C725        C  0.70485394  0.26162702  0.63876019    -0.12200
C726        C  0.69430889  0.27039527  0.66644221     0.05100
C727        C  0.74433290  0.25056695  0.60516142     0.27500
C728        C  0.75252216  0.26738961  0.58118334    -0.12900
C729        C  0.76112053  0.25569703  0.55388225     0.05600
C730        C  0.75963959  0.22719177  0.54974805    -0.08900
C731        C  0.75086597  0.21049392  0.57373986     0.06400
C732        C  0.74452445  0.22208264  0.60169024    -0.13300
Br733      Br  0.68019664  0.24806596  0.60821973    -0.05300
Br734      Br  0.76464753  0.30115536  0.71069034     0.00300
Br735      Br  0.77591965  0.27879027  0.52280158     0.00800
Br736      Br  0.73578353  0.19894253  0.63539878    -0.03700
Br737      Br  0.65568221  0.26530533  0.67498141     0.00900
Br738      Br  0.79036998  0.27360108  0.64818974    -0.03000
Br739      Br  0.75128534  0.30645414  0.58556794    -0.03800
Br740      Br  0.74536020  0.17188465  0.56811387     0.00200
C741        C  0.75013576  0.21788246  0.93765935     0.01600
C742        C  0.76785578  0.22670812  0.91440690     0.04400
C743        C  0.75704358  0.23530754  0.88681895    -0.11700
C744        C  0.72846987  0.23788686  0.88307176     0.23700
C745        C  0.71059486  0.22991691  0.90634592    -0.12200
C746        C  0.72132728  0.21898381  0.93313875     0.05100
C747        C  0.71771441  0.25045234  0.85515074     0.27500
C748        C  0.72034324  0.27877078  0.85092428    -0.12900
C749        C  0.71339266  0.29052648  0.82323239     0.05600
C750        C  0.70232644  0.27423696  0.80004887    -0.08900
C751        C  0.69871826  0.24600447  0.80471748     0.06400
C752        C  0.70699152  0.23407473  0.83195945    -0.13300
Br753      Br  0.67147152  0.23475200  0.90167931    -0.05300
Br754      Br  0.80694368  0.22988825  0.92070470     0.00300
Br755      Br  0.72087335  0.32869461  0.81659061     0.00800
Br756      Br  0.70453671  0.19517224  0.83724868    -0.03700
Br757      Br  0.69635052  0.20483901  0.96297198     0.00900
Br758      Br  0.78145627  0.24399717  0.85396284    -0.03000
Br759      Br  0.73410591  0.30138481  0.88306975    -0.03800
Br760      Br  0.68178714  0.22366459  0.77421255     0.00200
C761        C  0.82745526  0.84006944  0.00556506     0.01600
C762        C  0.85541218  0.83391934  0.50073739     0.04400
C763        C  0.87528459  0.85471853  0.50195226    -0.11700
C764        C  0.86734400  0.88168782  0.00845993     0.23700
C765        C  0.83942399  0.88776154  0.01374187    -0.12200
C766        C  0.81949094  0.86701445  0.01212110     0.05100
C767        C  0.88824958  0.90379877  0.50872673     0.27500
C768        C  0.90506424  0.90781620  0.53395063    -0.12900
C769        C  0.92539649  0.92832032  0.53387785     0.05600
C770        C  0.92843556  0.94593722  0.00872978    -0.08900
C771        C  0.91125390  0.94147721  0.98329524     0.06400
C772        C  0.89157804  0.92038725  0.98336830    -0.13300
Br773      Br  0.82857771  0.92458976  0.02304151    -0.05300
Br774      Br  0.86656358  0.79681045  0.49327582     0.00300
Br775      Br  0.94985934  0.93010744  0.56795381     0.00800
Br776      Br  0.86892871  0.91377469  0.94844816    -0.03700
Br777      Br  0.78116522  0.87556823  0.01809901     0.00900
Br778      Br  0.91342559  0.84637011  0.49445577    -0.03000
Br779      Br  0.90008999  0.88479470  0.56866330    -0.03800
Br780      Br  0.91330278  0.96389643  0.94780926     0.00200
C781        C  0.65605629  0.65644573  0.75246570     0.01600
C782        C  0.66110819  0.62853774  0.74773087     0.04400
C783        C  0.63905347  0.60994695  0.74679334    -0.11700
C784        C  0.61189310  0.61909647  0.75144837     0.23700
C785        C  0.60687895  0.64705881  0.75621670    -0.12200
C786        C  0.62886655  0.66572986  0.75619188     0.05100
C787        C  0.58856343  0.59941387  0.75086230     0.27500
C788        C  0.57178756  0.59745394  0.72531545    -0.12900
C789        C  0.54906244  0.57962063  0.72496501     0.05600
C790        C  0.54404350  0.56174906  0.74953487    -0.08900
C791        C  0.56159283  0.56353864  0.77501603     0.06400
C792        C  0.58313095  0.58281896  0.77585248    -0.13300
Br793      Br  0.56982643  0.65972988  0.76281417    -0.05300
Br794      Br  0.69831599  0.61590201  0.74244234     0.00300
Br795      Br  0.52450639  0.58163756  0.69090446     0.00800
Br796      Br  0.60566724  0.58658468  0.81130247    -0.03700
Br797      Br  0.62173508  0.70415475  0.76042808     0.00900
Br798      Br  0.64591678  0.57199113  0.73856615    -0.03000
Br799      Br  0.58054769  0.61908046  0.69038115    -0.03800
Br800      Br  0.55804708  0.53902589  0.80867283     0.00200
C801        C  0.72344271  0.71332374  0.81039881     0.01600
C802        C  0.70560133  0.72547695  0.83158265     0.04400
C803        C  0.71602238  0.73561383  0.85881750    -0.11700
C804        C  0.74460426  0.73598266  0.86406912     0.23700
C805        C  0.76258974  0.72476972  0.84252102    -0.12200
C806        C  0.75197737  0.71243613  0.81641824     0.05100
C807        C  0.75550147  0.74849545  0.89211496     0.27500
C808        C  0.75377924  0.77689897  0.89643206    -0.12900
C809        C  0.76068970  0.78842210  0.92434442     0.05600
C810        C  0.77228381  0.77205789  0.94711027    -0.08900
C811        C  0.77591283  0.74388416  0.94188159     0.06400
C812        C  0.76633676  0.73199007  0.91509039    -0.13300
Br813      Br  0.80185358  0.72714488  0.84828045    -0.05300
Br814      Br  0.66709089  0.73043971  0.82271254     0.00300
Br815      Br  0.75209823  0.82621567  0.93187557     0.00800
Br816      Br  0.76726976  0.69292430  0.91029649    -0.03700
Br817      Br  0.77661094  0.69346487  0.78960226     0.00900
Br818      Br  0.69099603  0.74911325  0.88905477    -0.03000
Br819      Br  0.74197540  0.80007083  0.86394992    -0.03800
Br820      Br  0.79512626  0.72156121  0.97065191     0.00200
C821        C  0.76756641  0.77410291  0.55972447     0.01600
C822        C  0.73923279  0.77248719  0.56651538     0.04400
C823        C  0.73050827  0.76089033  0.59376371    -0.11700
C824        C  0.75000575  0.75213095  0.61501536     0.23700
C825        C  0.77826576  0.75424419  0.60859189    -0.12200
C826        C  0.78702146  0.76435024  0.58068341     0.05100
C827        C  0.74071282  0.74051891  0.64403264     0.27500
C828        C  0.73096815  0.75782943  0.66689370    -0.12900
C829        C  0.72023423  0.74674842  0.69352133     0.05600
C830        C  0.72100736  0.71831787  0.69832093    -0.08900
C831        C  0.73223374  0.70114399  0.67600397     0.06400
C832        C  0.74123049  0.71214842  0.64858897    -0.13300
Br833      Br  0.80498198  0.74354200  0.63831158    -0.05300
Br834      Br  0.71223946  0.78718728  0.53929108     0.00300
Br835      Br  0.70318261  0.77060368  0.72253766     0.00800
Br836      Br  0.75411779  0.68836221  0.61706700    -0.03700
Br837      Br  0.82570013  0.76328300  0.57078916     0.00900
Br838      Br  0.69176387  0.75677217  0.60206009    -0.03000
Br839      Br  0.73275660  0.79680606  0.66175681    -0.03800
Br840      Br  0.73670001  0.66267715  0.68335841     0.00200
loop_ 
_geom_bond_atom_site_label_1 
_geom_bond_atom_site_label_2 
_geom_bond_distance 
_geom_bond_site_symmetry_2 
_ccdc_geom_bond_type 
C1            C2   1.404       .  A
C1            C6   1.402       .  A
C1          C361   1.481       .  S
C2            C3   1.407       .  A
C2            H7   1.082       .  S
C3            C4   1.404       .  A
C3          C381   1.490       .  S
C4            C5   1.403       .  A
C4            H8   1.087       .  S
C5            C6   1.404       .  A
C5          C410   1.485       .  S
C6            H9   1.083       .  S
C10          C15   1.402       .  A
C10         C431   1.400       .  A
C10         C341   1.479       .  S
C11          C12   1.403       .  A
C11         C430   1.400       .  A
C11          H16   1.081       .  S
C12         C433   1.405       .  A
C12         C401   1.486       .  S
C13          C14   1.407       .  A
C13         C432   1.405       .  A
C13          H17   1.084       .  S
C14          C15   1.405       .  A
C14         C390   1.489       .  S
C15          H18   1.085       .  S
C19          C20   1.400       .  A
C19          C24   1.399       .  A
C19         C281   1.475       .  S
C20          C21   1.404       .  A
C20          H25   1.082       .  S
C21          C22   1.406       .  A
C21         C330   1.485       .  S
C22          C23   1.405       .  A
C22          H26   1.085       .  S
C23          C24   1.401       .  A
C23         C301   1.482       .  S
C24          H27   1.083       .  S
C28          C29   1.402       .  A
C28         C453   1.397       .  A
C28         C690   1.476       .  S
C29          C30   1.409       .  A
C29          H34   1.083       .  S
C30          C31   1.408       .  A
C30         C321   1.494       .  S
C31         C452   1.406       .  A
C31          H35   1.086       .  S
C32          C33   1.401       .  A
C32         C451   1.406   1_554  A
C32         C310   1.486       .  S
C33         C448   1.397   1_554  A
C33          H36   1.084       .  S
C37          C38   1.405       .  A
C37          C42   1.400       .  A
C37         C201   1.484       .  S
C38          C39   1.409       .  A
C38          H43   1.083       .  S
C39          C40   1.409       .  A
C39         C241   1.497       .  S
C40          C41   1.407       .  A
C40          H44   1.083       .  S
C41          C42   1.402       .  A
C41         C230   1.490       .  S
C42          H45   1.085       .  S
C46          C47   1.402       .  A
C46         C471   1.400       .  A
C46         C601   1.479       .  S
C47          C48   1.404       .  A
C47          H52   1.083       .  S
C48          C49   1.408       .  A
C48         C250   1.489       .  S
C49         C470   1.408       .  A
C49          H53   1.087       .  S
C50          C51   1.405       .  A
C50         C469   1.408       .  A
C50         C221   1.490       .  S
C51         C466   1.400       .  A
C51          H54   1.083       .  S
O55         Ni63   1.925   1_565  S
O55         C485   1.282       .  A
O56         Ni63   1.924   1_455  S
O56         C486   1.282       .  A
O57         Ni63   1.916       .  S
O57          C67   1.281       .  A
O58         Ni63   1.927   1_465  S
O58          C68   1.282       .  A
O59         Ni64   1.907   1_465  S
O59         C488   1.278       .  A
O60         Ni64   1.917       .  S
O60         C487   1.280       .  A
O61         Ni64   1.920   1_455  S
O61          C66   1.281       .  A
O62         Ni64   1.919   1_565  S
O62          C65   1.280       .  A
Ni63       Ni484   2.374   1_554  S
Ni64       Ni483   2.374       .  S
C65         C350   1.505       .  S
C65         O475   1.282       .  A
C66         C161   1.492       .  S
C66         O476   1.282       .  A
C67         C261   1.492       .  S
C67         O480   1.280   1_554  A
C68         C190   1.500       .  S
C68         O479   1.278   1_554  A
O69         Ni77   1.911       .  S
O69          C79   1.278       .  A
O70         Ni77   1.911       .  S
O70          C80   1.278       .  A
O71         Ni77   1.932       .  S
O71          C81   1.283       .  A
O72         Ni77   1.921       .  S
O72          C82   1.282       .  A
O73         Ni78   1.925       .  S
O73          C82   1.282       .  A
O74         Ni78   1.912       .  S
O74          C81   1.278       .  A
O75         Ni78   1.920       .  S
O75          C80   1.280       .  A
O76         Ni78   1.927       .  S
O76          C79   1.283       .  A
Ni77        Ni78   2.372       .  S
C79         C210   1.500       .  S
C80         C290   1.505       .  S
C81         C370   1.505       .  S
C82         C141   1.491       .  S
C83          C88   1.409       .  A
C83         C504   1.402       .  A
C83         C170   1.486       .  S
C84          C85   1.401       .  A
C84         C503   1.402   1_554  A
C84          H89   1.087       .  S
C85         C506   1.404   1_554  A
C85         C130   1.483       .  S
C86          C87   1.408       .  A
C86         C505   1.404       .  A
C86          H90   1.084       .  S
C87          C88   1.411       .  A
C87         C110   1.497       .  S
C88          H91   1.083       .  S
C92          C93   1.408       .  A
C92          C97   1.406       .  A
C92         C150   1.493       .  S
C93          C94   1.408       .  A
C93          H98   1.083       .  S
C94          C95   1.406       .  A
C94         C121   1.496       .  S
C95          C96   1.403       .  A
C95          H99   1.085       .  S
C96          C97   1.403       .  A
C96         C101   1.482       .  S
C97         H100   1.084       .  S
C101        C102   1.409       .  A
C101        C106   1.409       .  A
C102        C103   1.410       .  A
C102       Br114   1.928       .  S
C103        C104   1.413       .  A
C103       Br118   1.930       .  S
C104        C105   1.411       .  A
C104        C107   1.491       .  S
C105        C106   1.407       .  A
C105       Br113   1.931       .  S
C106       Br117   1.927       .  S
C107        C108   1.409       .  A
C107        C112   1.409       .  A
C108        C109   1.410       .  A
C108       Br119   1.931       .  S
C109        C110   1.416       .  A
C109       Br115   1.926       .  S
C110        C111   1.416       .  A
C111        C112   1.408       .  A
C111       Br120   1.926       .  S
C112       Br116   1.932       .  S
C121        C122   1.418       .  A
C121        C126   1.417       .  A
C122        C123   1.406       .  A
C122       Br134   1.928       .  S
C123        C124   1.407       .  A
C123       Br138   1.935       .  S
C124        C125   1.409       .  A
C124        C127   1.488       .  S
C125        C126   1.411       .  A
C125       Br133   1.929       .  S
C126       Br137   1.931       .  S
C127        C128   1.411       .  A
C127        C132   1.410       .  A
C128        C129   1.411       .  A
C128       Br139   1.928       .  S
C129        C130   1.411       .  A
C129       Br135   1.929       .  S
C130        C131   1.409       .  A
C131        C132   1.404       .  A
C131       Br140   1.926       .  S
C132       Br136   1.932       .  S
C141        C142   1.415       .  A
C141        C146   1.417       .  A
C142        C143   1.410       .  A
C142       Br154   1.931       .  S
C143        C144   1.409       .  A
C143       Br158   1.930       .  S
C144        C145   1.408       .  A
C144        C147   1.491       .  S
C145        C146   1.411       .  A
C145       Br153   1.931       .  S
C146       Br157   1.930       .  S
C147        C148   1.409       .  A
C147        C152   1.409       .  A
C148        C149   1.410       .  A
C148       Br159   1.930       .  S
C149        C150   1.415       .  A
C149       Br155   1.931       .  S
C150        C151   1.416       .  A
C151        C152   1.411       .  A
C151       Br160   1.931       .  S
C152       Br156   1.929       .  S
C161        C166   1.418       .  A
C161        C582   1.418       .  A
C162        C163   1.411       .  A
C162        C581   1.418       .  A
C162       Br174   1.932       .  S
C163        C584   1.409       .  A
C163       Br178   1.931       .  S
C164        C165   1.408       .  A
C164        C583   1.409       .  A
C164        C587   1.491       .  S
C165        C166   1.410       .  A
C165       Br173   1.931       .  S
C166       Br177   1.933       .  S
C167        C168   1.411       .  A
C167        C592   1.410   1_554  A
C167        C584   1.491       .  S
C168        C169   1.411       .  A
C168       Br179   1.928       .  S
C169        C590   1.411   1_554  A
C169       Br175   1.929       .  S
C170        C171   1.410       .  A
C170        C589   1.411       .  A
C171        C172   1.407       .  A
C171       Br180   1.927       .  S
C172        C587   1.410       .  A
C172       Br176   1.931       .  S
C181        C186   1.409       .  A
C181        C602   1.410       .  A
C181        C466   1.479       .  S
C182        C183   1.407       .  A
C182        C601   1.410       .  A
C182       Br194   1.931       .  S
C183        C604   1.410       .  A
C183       Br198   1.930       .  S
C184        C185   1.410       .  A
C184        C603   1.410       .  A
C184        C607   1.486       .  S
C185        C186   1.407       .  A
C185       Br193   1.930       .  S
C186       Br197   1.929       .  S
C187        C188   1.405       .  A
C187        C612   1.406       .  A
C187        C604   1.486       .  S
C188        C189   1.407       .  A
C188       Br199   1.934       .  S
C189        C610   1.425       .  A
C189       Br195   1.937       .  S
C190        C191   1.424       .  A
C190        C609   1.425   1_554  A
C191        C192   1.411       .  A
C191       Br200   1.932       .  S
C192        C607   1.406       .  A
C192       Br196   1.933       .  S
C201        C202   1.410       .  A
C201        C206   1.411       .  A
C202        C203   1.408       .  A
C202       Br214   1.930       .  S
C203        C204   1.410       .  A
C203       Br218   1.929       .  S
C204        C205   1.410       .  A
C204        C207   1.489       .  S
C205        C206   1.409       .  A
C205       Br213   1.930       .  S
C206       Br217   1.930       .  S
C207        C208   1.405       .  A
C207        C212   1.407       .  A
C208        C209   1.409       .  A
C208       Br219   1.934       .  S
C209        C210   1.425       .  A
C209       Br215   1.936       .  S
C210        C211   1.422       .  A
C211        C212   1.411       .  A
C211       Br220   1.934       .  S
C212       Br216   1.932       .  S
C221        C222   1.414       .  A
C221        C226   1.414       .  A
C222        C223   1.412       .  A
C222       Br234   1.930       .  S
C223        C224   1.411       .  A
C223       Br238   1.929       .  S
C224        C225   1.409       .  A
C224        C227   1.490       .  S
C225        C226   1.406       .  A
C225       Br233   1.932       .  S
C226       Br237   1.933       .  S
C227        C228   1.409       .  A
C227        C232   1.410       .  A
C228        C229   1.407       .  A
C228       Br239   1.932       .  S
C229        C230   1.415       .  A
C229       Br235   1.933       .  S
C230        C231   1.414       .  A
C231        C232   1.411       .  A
C231       Br240   1.930       .  S
C232       Br236   1.929       .  S
C241        C242   1.417       .  A
C241        C246   1.417       .  A
C242        C243   1.408       .  A
C242       Br254   1.933       .  S
C243        C244   1.409       .  A
C243       Br258   1.932       .  S
C244        C245   1.410       .  A
C244        C247   1.493       .  S
C245        C246   1.412       .  A
C245       Br253   1.930       .  S
C246       Br257   1.931       .  S
C247        C248   1.411       .  A
C247        C252   1.411       .  A
C248        C249   1.411       .  A
C248       Br259   1.929       .  S
C249        C250   1.413       .  A
C249       Br255   1.930       .  S
C250        C251   1.413       .  A
C251        C252   1.409       .  A
C251       Br260   1.932       .  S
C252       Br256   1.931       .  S
C261        C262   1.420       .  A
C261        C686   1.420   1_554  A
C262        C263   1.408       .  A
C262       Br274   1.934       .  S
C263        C684   1.406       .  A
C263       Br278   1.932       .  S
C264        C265   1.405       .  A
C264        C683   1.406       .  A
C264        C687   1.482       .  S
C265        C266   1.407       .  A
C265       Br273   1.934       .  S
C266        C681   1.420       .  A
C266       Br277   1.930       .  S
C267        C268   1.409   1_556  A
C267        C692   1.409       .  A
C267        C684   1.482   1_556  S
C268        C269   1.406       .  A
C268       Br279   1.930       .  S
C269        C270   1.409   1_554  A
C269       Br275   1.927       .  S
C270        C691   1.409       .  A
C270        C448   1.476       .  S
C271        C272   1.406       .  A
C271        C690   1.409       .  A
C271       Br280   1.927       .  S
C272        C687   1.409       .  A
C272       Br276   1.930       .  S
C281        C282   1.410       .  A
C281        C286   1.409       .  A
C282        C283   1.406       .  A
C282       Br294   1.930       .  S
C283        C284   1.409       .  A
C283       Br298   1.929       .  S
C284        C285   1.408       .  A
C284        C287   1.481       .  S
C285        C286   1.405       .  A
C285       Br293   1.930       .  S
C286       Br297   1.930       .  S
C287        C288   1.402       .  A
C287        C292   1.401       .  A
C288        C289   1.410       .  A
C288       Br299   1.934       .  S
C289        C290   1.429       .  A
C289       Br295   1.936       .  S
C290        C291   1.430       .  A
C291        C292   1.407       .  A
C291       Br300   1.938       .  S
C292       Br296   1.936       .  S
C301        C302   1.412       .  A
C301        C306   1.412       .  A
C302        C303   1.409       .  A
C302       Br314   1.930       .  S
C303        C304   1.410       .  A
C303       Br318   1.930       .  S
C304        C305   1.409       .  A
C304        C307   1.484       .  S
C305        C306   1.404       .  A
C305       Br313   1.933       .  S
C306       Br317   1.933       .  S
C307        C308   1.409       .  A
C307        C312   1.407       .  A
C308        C309   1.409       .  A
C308       Br319   1.930       .  S
C309        C310   1.414       .  A
C309       Br315   1.931       .  S
C310        C311   1.415       .  A
C311        C312   1.404       .  A
C311       Br320   1.931       .  S
C312       Br316   1.933       .  S
C321        C322   1.416       .  A
C321        C326   1.417       .  A
C322        C323   1.404       .  A
C322       Br334   1.929       .  S
C323        C324   1.406       .  A
C323       Br338   1.933       .  S
C324        C325   1.409       .  A
C324        C327   1.487       .  S
C325        C326   1.412       .  A
C325       Br333   1.930       .  S
C326       Br337   1.931       .  S
C327        C328   1.410       .  A
C327        C332   1.409       .  A
C328        C329   1.406       .  A
C328       Br339   1.932       .  S
C329        C330   1.413       .  A
C329       Br335   1.933       .  S
C330        C331   1.413       .  A
C331        C332   1.409       .  A
C331       Br340   1.931       .  S
C332       Br336   1.929       .  S
C341        C346   1.410       .  A
C341        C762   1.410       .  A
C342        C343   1.407       .  A
C342        C761   1.410       .  A
C342       Br354   1.931   1_554  S
C343        C764   1.410       .  A
C343       Br358   1.930   1_554  S
C344        C345   1.411       .  A
C344        C763   1.410       .  A
C344        C767   1.487       .  S
C345        C346   1.408       .  A
C345       Br353   1.929       .  S
C346       Br357   1.930       .  S
C347        C348   1.405       .  A
C347        C772   1.404   1_554  A
C347        C764   1.487       .  S
C348        C349   1.411       .  A
C348       Br359   1.934       .  S
C349        C770   1.425       .  A
C349       Br355   1.933       .  S
C350        C351   1.426       .  A
C350        C769   1.425       .  A
C351        C352   1.410       .  A
C351       Br360   1.932       .  S
C352        C767   1.404       .  A
C352       Br356   1.935       .  S
C361        C362   1.409       .  A
C361        C366   1.409       .  A
C362        C363   1.409       .  A
C362       Br374   1.928       .  S
C363        C364   1.411       .  A
C363       Br378   1.929       .  S
C364        C365   1.411       .  A
C364        C367   1.490       .  S
C365        C366   1.408       .  A
C365       Br373   1.930       .  S
C366       Br377   1.928       .  S
C367        C368   1.405       .  A
C367        C372   1.407       .  A
C368        C369   1.410       .  A
C368       Br379   1.934       .  S
C369        C370   1.426       .  A
C369       Br375   1.936       .  S
C370        C371   1.424       .  A
C371        C372   1.412       .  A
C371       Br380   1.933       .  S
C372       Br376   1.933       .  S
C381        C382   1.414       .  A
C381        C386   1.415       .  A
C382        C383   1.407       .  A
C382       Br394   1.931       .  S
C383        C384   1.410       .  A
C383       Br398   1.933       .  S
C384        C385   1.411       .  A
C384        C387   1.490       .  S
C385        C386   1.409       .  A
C385       Br393   1.931       .  S
C386       Br397   1.932       .  S
C387        C388   1.411       .  A
C387        C392   1.411       .  A
C388        C389   1.407       .  A
C388       Br399   1.932       .  S
C389        C390   1.414       .  A
C389       Br395   1.932       .  S
C390        C391   1.414       .  A
C391        C392   1.408       .  A
C391       Br400   1.932       .  S
C392       Br396   1.931       .  S
C401        C402   1.413       .  A
C401        C406   1.415       .  A
C402        C403   1.408       .  A
C402       Br414   1.931       .  S
C403        C404   1.410       .  A
C403       Br418   1.931       .  S
C404        C405   1.408       .  A
C404        C407   1.485       .  S
C405        C406   1.406       .  A
C405       Br413   1.931       .  S
C406       Br417   1.933       .  S
C407        C408   1.409       .  A
C407        C412   1.409       .  A
C408        C409   1.407       .  A
C408       Br419   1.930       .  S
C409        C410   1.414       .  A
C409       Br415   1.932       .  S
C410        C411   1.413       .  A
C411        C412   1.407       .  A
C411       Br420   1.931       .  S
C412       Br416   1.931       .  S
C421        C422   1.404       .  A
C421        C426   1.402       .  A
C421        C781   1.481       .  S
C422        C423   1.407       .  A
C422        H427   1.082       .  S
C423        C424   1.404       .  A
C423        C801   1.490       .  S
C424        C425   1.403       .  A
C424        H428   1.087       .  S
C425        C426   1.404       .  A
C425        C830   1.485       .  S
C426        H429   1.083       .  S
C430        C435   1.402   1_554  A
C430        C761   1.479       .  S
C431        C432   1.403       .  A
C431        H436   1.081       .  S
C432        C821   1.486       .  S
C433        C434   1.407   1_554  A
C433        H437   1.084       .  S
C434        C435   1.405       .  A
C434        C810   1.489       .  S
C435        H438   1.085       .  S
C439        C440   1.400       .  A
C439        C444   1.399       .  A
C439        C701   1.475       .  S
C440        C441   1.404       .  A
C440        H445   1.082       .  S
C441        C442   1.406       .  A
C441        C750   1.485       .  S
C442        C443   1.405       .  A
C442        H446   1.085       .  S
C443        C444   1.401       .  A
C443        C721   1.482       .  S
C444        H447   1.083       .  S
C448        C449   1.402       .  A
C449        C450   1.409       .  A
C449        H454   1.083       .  S
C450        C451   1.408       .  A
C450        C741   1.494       .  S
C451        H455   1.086       .  S
C452        C453   1.401       .  A
C452        C730   1.486       .  S
C453        H456   1.084       .  S
C457        C458   1.405       .  A
C457        C462   1.400       .  A
C457        C621   1.484       .  S
C458        C459   1.409       .  A
C458        H463   1.083       .  S
C459        C460   1.409       .  A
C459        C661   1.497       .  S
C460        C461   1.407       .  A
C460        H464   1.083       .  S
C461        C462   1.402       .  A
C461        C650   1.490       .  S
C462        H465   1.085       .  S
C466        C467   1.402   1_554  A
C467        C468   1.404       .  A
C467        H472   1.083       .  S
C468        C469   1.408   1_556  A
C468        C670   1.489       .  S
C469        H473   1.087       .  S
C470        C471   1.405       .  A
C470        C641   1.490       .  S
C471        H474   1.083       .  S
O475       Ni483   1.925   1_565  S
O476       Ni483   1.924   1_455  S
O477       Ni483   1.916       .  S
O477        C487   1.281       .  A
O478       Ni483   1.927   1_465  S
O478        C488   1.282       .  A
O479       Ni484   1.907   1_465  S
O480       Ni484   1.917       .  S
O481       Ni484   1.920   1_455  S
O481        C486   1.281   1_556  A
O482       Ni484   1.919   1_565  S
O482        C485   1.280   1_556  A
C485        C770   1.505       .  S
C486        C581   1.492       .  S
C487        C681   1.492       .  S
C488        C610   1.500       .  S
O489       Ni497   1.911       .  S
O489        C499   1.278       .  A
O490       Ni497   1.911       .  S
O490        C500   1.278       .  A
O491       Ni497   1.932       .  S
O491        C501   1.283       .  A
O492       Ni497   1.921       .  S
O492        C502   1.282       .  A
O493       Ni498   1.925       .  S
O493        C502   1.282       .  A
O494       Ni498   1.912       .  S
O494        C501   1.278       .  A
O495       Ni498   1.920       .  S
O495        C500   1.280       .  A
O496       Ni498   1.927       .  S
O496        C499   1.283       .  A
Ni497      Ni498   2.372       .  S
C499        C630   1.500       .  S
C500        C710   1.505       .  S
C501        C790   1.505       .  S
C502        C561   1.491       .  S
C503        C508   1.409       .  A
C503        C590   1.486       .  S
C504        C505   1.401       .  A
C504        H509   1.087       .  S
C505        C550   1.483       .  S
C506        C507   1.408       .  A
C506        H510   1.084       .  S
C507        C508   1.411       .  A
C507        C530   1.497       .  S
C508        H511   1.083       .  S
C512        C513   1.408       .  A
C512        C517   1.406       .  A
C512        C570   1.493       .  S
C513        C514   1.408       .  A
C513        H518   1.083       .  S
C514        C515   1.406       .  A
C514        C541   1.496       .  S
C515        C516   1.403       .  A
C515        H519   1.085       .  S
C516        C517   1.403       .  A
C516        C521   1.482       .  S
C517        H520   1.083       .  S
C521        C522   1.409       .  A
C521        C526   1.409       .  A
C522        C523   1.410       .  A
C522       Br534   1.928       .  S
C523        C524   1.413       .  A
C523       Br538   1.930       .  S
C524        C525   1.411       .  A
C524        C527   1.491       .  S
C525        C526   1.407       .  A
C525       Br533   1.931       .  S
C526       Br537   1.927       .  S
C527        C528   1.409       .  A
C527        C532   1.409       .  A
C528        C529   1.410       .  A
C528       Br539   1.931       .  S
C529        C530   1.416       .  A
C529       Br535   1.926       .  S
C530        C531   1.416       .  A
C531        C532   1.408       .  A
C531       Br540   1.926       .  S
C532       Br536   1.932       .  S
C541        C542   1.418       .  A
C541        C546   1.417       .  A
C542        C543   1.406       .  A
C542       Br554   1.928       .  S
C543        C544   1.407       .  A
C543       Br558   1.935       .  S
C544        C545   1.409       .  A
C544        C547   1.488       .  S
C545        C546   1.411       .  A
C545       Br553   1.929       .  S
C546       Br557   1.931       .  S
C547        C548   1.411       .  A
C547        C552   1.410       .  A
C548        C549   1.411       .  A
C548       Br559   1.928       .  S
C549        C550   1.411       .  A
C549       Br555   1.929       .  S
C550        C551   1.409       .  A
C551        C552   1.404       .  A
C551       Br560   1.926       .  S
C552       Br556   1.932       .  S
C561        C562   1.415       .  A
C561        C566   1.417       .  A
C562        C563   1.410       .  A
C562       Br574   1.931       .  S
C563        C564   1.409       .  A
C563       Br578   1.930       .  S
C564        C565   1.408       .  A
C564        C567   1.491       .  S
C565        C566   1.411       .  A
C565       Br573   1.931       .  S
C566       Br577   1.930       .  S
C567        C568   1.409       .  A
C567        C572   1.409       .  A
C568        C569   1.410       .  A
C568       Br579   1.930       .  S
C569        C570   1.415       .  A
C569       Br575   1.931       .  S
C570        C571   1.416       .  A
C571        C572   1.411       .  A
C571       Br580   1.931       .  S
C572       Br576   1.929       .  S
C581        C586   1.418   1_554  A
C582        C583   1.411       .  A
C582       Br594   1.932       .  S
C583       Br598   1.931       .  S
C584        C585   1.408   1_554  A
C585        C586   1.410       .  A
C585       Br593   1.931       .  S
C586       Br597   1.933       .  S
C587        C588   1.411       .  A
C588        C589   1.411       .  A
C588       Br599   1.928       .  S
C589       Br595   1.929       .  S
C590        C591   1.410       .  A
C591        C592   1.407       .  A
C591       Br600   1.927       .  S
C592       Br596   1.931       .  S
C601        C606   1.409       .  A
C602        C603   1.407       .  A
C602       Br614   1.931       .  S
C603       Br618   1.930       .  S
C604        C605   1.410       .  A
C605        C606   1.407       .  A
C605       Br613   1.930       .  S
C606       Br617   1.929       .  S
C607        C608   1.405   1_554  A
C608        C609   1.407       .  A
C608       Br619   1.934       .  S
C609       Br615   1.937       .  S
C610        C611   1.424       .  A
C611        C612   1.411       .  A
C611       Br620   1.932       .  S
C612       Br616   1.933       .  S
C621        C622   1.410       .  A
C621        C626   1.411       .  A
C622        C623   1.408       .  A
C622       Br634   1.930       .  S
C623        C624   1.410       .  A
C623       Br638   1.929       .  S
C624        C625   1.410       .  A
C624        C627   1.489       .  S
C625        C626   1.409       .  A
C625       Br633   1.930       .  S
C626       Br637   1.930       .  S
C627        C628   1.405       .  A
C627        C632   1.407       .  A
C628        C629   1.409       .  A
C628       Br639   1.934       .  S
C629        C630   1.425       .  A
C629       Br635   1.936       .  S
C630        C631   1.422       .  A
C631        C632   1.411       .  A
C631       Br640   1.934       .  S
C632       Br636   1.932       .  S
C641        C642   1.414       .  A
C641        C646   1.414       .  A
C642        C643   1.412       .  A
C642       Br654   1.930       .  S
C643        C644   1.411       .  A
C643       Br658   1.929       .  S
C644        C645   1.409       .  A
C644        C647   1.490       .  S
C645        C646   1.406       .  A
C645       Br653   1.932       .  S
C646       Br657   1.933       .  S
C647        C648   1.409       .  A
C647        C652   1.410       .  A
C648        C649   1.407       .  A
C648       Br659   1.932       .  S
C649        C650   1.415       .  A
C649       Br655   1.933       .  S
C650        C651   1.414       .  A
C651        C652   1.411       .  A
C651       Br660   1.930       .  S
C652       Br656   1.929       .  S
C661        C662   1.417       .  A
C661        C666   1.417       .  A
C662        C663   1.408       .  A
C662       Br674   1.933       .  S
C663        C664   1.409       .  A
C663       Br678   1.932       .  S
C664        C665   1.410       .  A
C664        C667   1.493       .  S
C665        C666   1.412       .  A
C665       Br673   1.930       .  S
C666       Br677   1.931       .  S
C667        C668   1.411       .  A
C667        C672   1.411       .  A
C668        C669   1.411       .  A
C668       Br679   1.929       .  S
C669        C670   1.413       .  A
C669       Br675   1.930       .  S
C670        C671   1.413       .  A
C671        C672   1.409       .  A
C671       Br680   1.932       .  S
C672       Br676   1.931       .  S
C681        C682   1.420       .  A
C682        C683   1.408       .  A
C682       Br694   1.934       .  S
C683       Br698   1.932       .  S
C684        C685   1.405   1_554  A
C685        C686   1.407       .  A
C685       Br693   1.934       .  S
C686       Br697   1.930       .  S
C687        C688   1.409       .  A
C688        C689   1.406       .  A
C688       Br699   1.930       .  S
C689        C690   1.409       .  A
C689       Br695   1.927       .  S
C691        C692   1.406       .  A
C691       Br700   1.927       .  S
C692       Br696   1.930       .  S
C701        C702   1.410       .  A
C701        C706   1.409       .  A
C702        C703   1.406       .  A
C702       Br714   1.930       .  S
C703        C704   1.409       .  A
C703       Br718   1.929       .  S
C704        C705   1.408       .  A
C704        C707   1.481       .  S
C705        C706   1.405       .  A
C705       Br713   1.930       .  S
C706       Br717   1.930       .  S
C707        C708   1.402       .  A
C707        C712   1.401       .  A
C708        C709   1.410       .  A
C708       Br719   1.934       .  S
C709        C710   1.429       .  A
C709       Br715   1.936       .  S
C710        C711   1.430       .  A
C711        C712   1.407       .  A
C711       Br720   1.938       .  S
C712       Br716   1.936       .  S
C721        C722   1.412       .  A
C721        C726   1.412       .  A
C722        C723   1.409       .  A
C722       Br734   1.930       .  S
C723        C724   1.410       .  A
C723       Br738   1.930       .  S
C724        C725   1.409       .  A
C724        C727   1.484       .  S
C725        C726   1.404       .  A
C725       Br733   1.933       .  S
C726       Br737   1.933       .  S
C727        C728   1.409       .  A
C727        C732   1.407       .  A
C728        C729   1.409       .  A
C728       Br739   1.930       .  S
C729        C730   1.414       .  A
C729       Br735   1.931       .  S
C730        C731   1.415       .  A
C731        C732   1.404       .  A
C731       Br740   1.931       .  S
C732       Br736   1.933       .  S
C741        C742   1.416       .  A
C741        C746   1.417       .  A
C742        C743   1.404       .  A
C742       Br754   1.929       .  S
C743        C744   1.406       .  A
C743       Br758   1.933       .  S
C744        C745   1.409       .  A
C744        C747   1.487       .  S
C745        C746   1.412       .  A
C745       Br753   1.930       .  S
C746       Br757   1.931       .  S
C747        C748   1.410       .  A
C747        C752   1.409       .  A
C748        C749   1.406       .  A
C748       Br759   1.932       .  S
C749        C750   1.413       .  A
C749       Br755   1.933       .  S
C750        C751   1.413       .  A
C751        C752   1.409       .  A
C751       Br760   1.931       .  S
C752       Br756   1.929       .  S
C761        C766   1.410       .  A
C762        C763   1.407       .  A
C762       Br774   1.931       .  S
C763       Br778   1.930       .  S
C764        C765   1.411       .  A
C765        C766   1.408       .  A
C765       Br773   1.929       .  S
C766       Br777   1.930       .  S
C767        C768   1.405       .  A
C768        C769   1.411       .  A
C768       Br779   1.934       .  S
C769       Br775   1.933       .  S
C770        C771   1.426   1_554  A
C771        C772   1.410       .  A
C771       Br780   1.932       .  S
C772       Br776   1.935       .  S
C781        C782   1.409       .  A
C781        C786   1.409       .  A
C782        C783   1.409       .  A
C782       Br794   1.928       .  S
C783        C784   1.411       .  A
C783       Br798   1.929       .  S
C784        C785   1.411       .  A
C784        C787   1.490       .  S
C785        C786   1.408       .  A
C785       Br793   1.930       .  S
C786       Br797   1.928       .  S
C787        C788   1.405       .  A
C787        C792   1.407       .  A
C788        C789   1.410       .  A
C788       Br799   1.934       .  S
C789        C790   1.426       .  A
C789       Br795   1.936       .  S
C790        C791   1.424       .  A
C791        C792   1.412       .  A
C791       Br800   1.933       .  S
C792       Br796   1.933       .  S
C801        C802   1.414       .  A
C801        C806   1.415       .  A
C802        C803   1.407       .  A
C802       Br814   1.931       .  S
C803        C804   1.410       .  A
C803       Br818   1.933       .  S
C804        C805   1.411       .  A
C804        C807   1.490       .  S
C805        C806   1.409       .  A
C805       Br813   1.931       .  S
C806       Br817   1.932       .  S
C807        C808   1.411       .  A
C807        C812   1.411       .  A
C808        C809   1.407       .  A
C808       Br819   1.932       .  S
C809        C810   1.414       .  A
C809       Br815   1.932       .  S
C810        C811   1.414       .  A
C811        C812   1.408       .  A
C811       Br820   1.932       .  S
C812       Br816   1.931       .  S
C821        C822   1.413       .  A
C821        C826   1.415       .  A
C822        C823   1.408       .  A
C822       Br834   1.931       .  S
C823        C824   1.410       .  A
C823       Br838   1.931       .  S
C824        C825   1.408       .  A
C824        C827   1.485       .  S
C825        C826   1.406       .  A
C825       Br833   1.931       .  S
C826       Br837   1.933       .  S
C827        C828   1.409       .  A
C827        C832   1.409       .  A
C828        C829   1.407       .  A
C828       Br839   1.930       .  S
C829        C830   1.414       .  A
C829       Br835   1.932       .  S
C830        C831   1.413       .  A
C831        C832   1.407       .  A
C831       Br840   1.931       .  S
C832       Br836   1.931       .  S
