geometry optimzed in LAMMPS
_audit_creation_date              2020-11-30 
_audit_creation_method            'lammps2cif' 
_symmetry_space_group_name_H-M    'P1' 
_symmetry_Int_Tables_number       1 
_symmetry_cell_setting            triclinic 
loop_ 
_symmetry_equiv_pos_as_xyz 
  x,y,z 
_cell_length_a                    40.64382179 
_cell_length_b                    40.518837961423976 
_cell_length_c                    38.969344036264374 
_cell_angle_alpha                 89.86747418215161 
_cell_angle_beta                  90.23727146446011 
_cell_angle_gamma                 90.1255069797318 
loop_ 
_atom_site_label 
_atom_site_type_symbol 
_atom_site_fract_x 
_atom_site_fract_y 
_atom_site_fract_z 
_atom_site_charge 
O1          O  0.37484638  0.97019666  0.20838722    -0.71600
O2          O  0.37369106  0.03825179  0.27557646    -0.71800
O3          O  0.37276196  0.03614277  0.20626102    -0.71600
O4          O  0.37613504  0.97156544  0.27734454    -0.71700
O5          O  0.42932321  0.97062486  0.27297933    -0.71600
O6          O  0.42584838  0.04104700  0.20929481    -0.71600
O7          O  0.42702249  0.03668585  0.27830135    -0.71600
O8          O  0.42785558  0.97572092  0.20448192    -0.71800
V9          V  0.37528319  0.00414580  0.24200756     1.35200
V10         V  0.42649001  0.00603863  0.24138269     1.35200
C11         C  0.40154955  0.96227417  0.19409439     0.77700
C12         C  0.40018472  0.04846187  0.28909701     0.77700
C13         C  0.39899275  0.04922867  0.19526456     0.77600
C14         C  0.40343862  0.95912531  0.28629591     0.77600
C15         C  0.41359454  0.20447072  0.99050985    -0.02300
C16         C  0.43039901  0.80532162  0.99493191    -0.02300
O17         O  0.65337003  0.96096708  0.22416210    -0.71600
O18         O  0.64699519  0.02305367  0.29695716    -0.71800
O19         O  0.64868040  0.02716358  0.22756226    -0.71600
O20         O  0.65142133  0.95723330  0.29259239    -0.71700
O21         O  0.70443799  0.96216700  0.29632688    -0.71600
O22         O  0.70200124  0.02939458  0.22753953    -0.71600
O23         O  0.70010038  0.02854613  0.29726605    -0.71600
O24         O  0.70657539  0.96317841  0.22762138    -0.71800
V25         V  0.65115452  0.99232415  0.26032829     1.35200
V26         V  0.70227146  0.99589557  0.26216999     1.35200
C27         C  0.68108635  0.95069109  0.21412147     0.77700
C28         C  0.67249393  0.03609088  0.30993404     0.77700
C29         C  0.67481588  0.03949761  0.21545110     0.77600
C30         C  0.67830970  0.94761946  0.30556979     0.77600
C31         C  0.65349159  0.19373957  0.00716516    -0.02300
C32         C  0.67524066  0.79351188  0.51104028    -0.02300
O33         O  0.99773071  0.38824577  0.20909536    -0.71600
O34         O  0.05968854  0.39075792  0.28157725    -0.71800
O35         O  0.06362036  0.38971906  0.21299057    -0.71600
O36         O  0.99369885  0.38827934  0.27786870    -0.71700
O37         O  0.99444676  0.33476059  0.27726588    -0.71600
O38         O  0.06562971  0.33626918  0.21489873    -0.71600
O39         O  0.06087082  0.33735066  0.28382068    -0.71600
O40         O  0.99972802  0.33482432  0.20828368    -0.71800
V41         V  0.02869532  0.38816223  0.24545035     1.35200
V42         V  0.03011779  0.33677927  0.24613316     1.35200
C43         C  0.98838786  0.36146816  0.19572133     0.77700
C44         C  0.07116049  0.36491526  0.29514963     0.77700
C45         C  0.07655527  0.36307134  0.20284148     0.77600
C46         C  0.98185619  0.36113128  0.28832013     0.77600
C47         C  0.23008792  0.38076585  0.00052539    -0.02300
C48         C  0.83370086  0.37068194  0.49067320    -0.02300
O49         O  0.01505008  0.66671299  0.21965524    -0.71600
O50         O  0.08589672  0.66996584  0.28241510    -0.71800
O51         O  0.08091192  0.66705695  0.21381164    -0.71600
O52         O  0.02000622  0.66880765  0.28832578    -0.71700
O53         O  0.01782904  0.61529514  0.28682406    -0.71600
O54         O  0.08439050  0.61393287  0.21956165    -0.71600
O55         O  0.08380245  0.61669935  0.28815678    -0.71600
O56         O  0.01867337  0.61328081  0.21838798    -0.71800
V57         V  0.05048793  0.66719391  0.25110556     1.35200
V58         V  0.05117382  0.61581784  0.25321596     1.35200
C59         C  0.00527438  0.63951303  0.20766097     0.77700
C60         C  0.09651687  0.64404977  0.29657255     0.77700
C61         C  0.09354113  0.63993935  0.20446586     0.77600
C62         C  0.00782788  0.64205206  0.29953022     0.77600
C63         C  0.25012951  0.62799305  0.00165991    -0.02300
C64         C  0.85367007  0.61406350  0.00627118    -0.02300
C65         C  0.93408681  0.63399896  0.44777991    -0.27400
C66         C  0.91952044  0.63254414  0.41520663     0.02200
C67         C  0.88579775  0.62526137  0.41269412     0.30300
C68         C  0.86731370  0.61992824  0.44234769    -0.19200
C69         C  0.88105500  0.62313281  0.47566569    -0.28600
C70         C  0.91570115  0.62884007  0.47771782     0.44300
C71         C  0.94022701  0.63685334  0.38411893     0.05500
O72         O  0.87044110  0.62358386  0.38133997    -0.57100
H73         H  0.84141150  0.61419021  0.43935508     0.18400
O74         O  0.93256258  0.62812297  0.50826314    -0.63800
H75         H  0.96035910  0.63810015  0.45009100     0.16900
C76         C  0.96186327  0.66394871  0.38071172     0.29100
C77         C  0.98295087  0.66612205  0.35240981    -0.24700
C78         C  0.98300196  0.64142662  0.32722032    -0.24000
C79         C  0.96048557  0.61498670  0.32998551     0.40600
C80         C  0.93941154  0.61287984  0.35820185    -0.26500
O81         O  0.96299177  0.68818532  0.40519994    -0.58400
H82         H  0.00002255  0.68662968  0.35073973     0.16200
O83         O  0.95852276  0.59129055  0.30495209    -0.59800
H84         H  0.92302861  0.59184758  0.36028039     0.14700
H85         H  0.94703067  0.60849175  0.50735959     0.46500
H86         H  0.94462549  0.70327202  0.39941584     0.41900
H87         H  0.97085826  0.57208406  0.31418367     0.45400
H88         H  0.86509846  0.64679544  0.37528750     0.36800
C89         C  0.90333844  0.65774125  0.07788265    -0.27400
C90         C  0.90560931  0.63268139  0.10258731     0.02200
C91         C  0.88551371  0.60471570  0.09953864     0.30300
C92         C  0.86783776  0.59946187  0.06935681    -0.19200
C93         C  0.86963876  0.62193003  0.04157078    -0.28600
C94         C  0.88453994  0.65307624  0.04803731     0.44300
C95         C  0.93068820  0.63454844  0.12995638     0.05500
O96         O  0.88281364  0.58267120  0.12625014    -0.57100
H97         H  0.85287157  0.57742543  0.06807970     0.18400
O98         O  0.88265430  0.67810862  0.02424961    -0.63800
H99         H  0.91743754  0.68029011  0.08083967     0.16900
C100        C  0.95307697  0.60839175  0.13478445     0.29100
C101        C  0.97668443  0.61017054  0.16066454    -0.24700
C102        C  0.97930663  0.63831314  0.18131316    -0.24000
C103        C  0.95761336  0.66499003  0.17580834     0.40600
C104        C  0.93333607  0.66283693  0.15038882    -0.26500
O105        O  0.95259052  0.58121374  0.11384189    -0.58400
H106        H  0.99355509  0.58972308  0.16397683     0.16200
O107        O  0.95926128  0.69283295  0.19570313    -0.59800
H108        H  0.91647707  0.68322937  0.14670208     0.14700
H109        H  0.90555914  0.68281086  0.01695472     0.46500
H110        H  0.96478957  0.58791698  0.09297766     0.41900
H111        H  0.97227020  0.70890409  0.18212487     0.45400
H112        H  0.89069947  0.56120047  0.11734523     0.36800
C113        C  0.16455478  0.67674641  0.35386274    -0.27400
C114        C  0.16702043  0.65115915  0.37779885     0.02200
C115        C  0.14821906  0.62229226  0.37369437     0.30300
C116        C  0.12603315  0.61980414  0.34643439    -0.19200
C117        C  0.12240586  0.64593062  0.32302590    -0.28600
C118        C  0.14254986  0.67423466  0.32637781     0.44300
C119        C  0.18880828  0.65454967  0.40756745     0.05500
O120        O  0.15066463  0.59683850  0.39684542    -0.57100
H121        H  0.11097878  0.59780248  0.34422410     0.18400
O122        O  0.14072705  0.69972023  0.30322980    -0.63800
H123        H  0.17942909  0.69879995  0.35676198     0.16900
C124        C  0.22197696  0.64584916  0.40541728     0.29100
C125        C  0.24059267  0.64287408  0.43537235    -0.24700
C126        C  0.22595049  0.64636762  0.46809834    -0.24000
C127        C  0.19403149  0.66089487  0.46925187     0.40600
C128        C  0.17560155  0.66400661  0.43900058    -0.26500
O129        O  0.23559238  0.63742339  0.37452579    -0.58400
H130        H  0.26566979  0.63414882  0.43322266     0.16200
O131        O  0.18143076  0.67401683  0.49889423    -0.59800
H132        H  0.15054357  0.67303611  0.44019029     0.14700
H133        H  0.15543192  0.69324946  0.28414398     0.46500
H134        H  0.24268310  0.65861200  0.36410443     0.41900
H135        H  0.16343871  0.65736453  0.00335272     0.45400
H136        H  0.17045469  0.58427043  0.38985295     0.36800
C137        C  0.15778608  0.60716130  0.14259532    -0.27400
C138        C  0.16311989  0.63456810  0.12146448     0.02200
C139        C  0.14588051  0.66400342  0.12774172     0.30300
C140        C  0.12348675  0.66566734  0.15499963    -0.19200
C141        C  0.11809561  0.63819899  0.17639610    -0.28600
C142        C  0.13581732  0.60881725  0.17003155     0.44300
C143        C  0.18625490  0.63174249  0.09247587     0.05500
O144        O  0.14973431  0.69072813  0.10645362    -0.57100
H145        H  0.11000388  0.68834983  0.15905556     0.18400
O146        O  0.13182959  0.58139095  0.19029765    -0.63800
H147        H  0.17092873  0.58437921  0.13789605     0.16900
C148        C  0.21672296  0.64801263  0.09290440     0.29100
C149        C  0.23805222  0.64528780  0.06488293    -0.24700
C150        C  0.22880250  0.62783379  0.03490959    -0.24000
C151        C  0.19913814  0.60903209  0.03644046     0.40600
C152        C  0.17817646  0.61153618  0.06470910    -0.26500
O153        O  0.22626849  0.66583160  0.12114474    -0.58400
H154        H  0.26172939  0.65723551  0.06703202     0.16200
O155        O  0.18898883  0.59017413  0.00918556    -0.59800
H156        H  0.15506058  0.59814331  0.06457677     0.14700
H157        H  0.14906277  0.58323176  0.20829722     0.46500
H158        H  0.22435377  0.68931828  0.11418239     0.41900
H159        H  0.19167475  0.56695608  0.01680092     0.45400
H160        H  0.16413171  0.70624050  0.11924730     0.36800
C161        C  0.85892068  0.51877874  0.00483876    -0.27400
C162        C  0.82802772  0.51317631  0.49643552     0.02200
C163        C  0.80452714  0.53796789  0.49144296     0.30300
C164        C  0.81370589  0.57125368  0.49420822    -0.19200
C165        C  0.84330007  0.57707910  0.00369204    -0.28600
C166        C  0.86734648  0.55192419  0.00814602     0.44300
C167        C  0.82020983  0.47795715  0.49203422     0.05500
O168        O  0.77263892  0.52992071  0.48342545    -0.57100
H169        H  0.79494819  0.58952240  0.48935279     0.18400
O170        O  0.89926173  0.55944759  0.01659381    -0.63800
H171        H  0.87778112  0.50019372  0.00853153     0.16900
C172        C  0.82918499  0.46243707  0.46155827     0.29100
C173        C  0.83164152  0.42821803  0.46033168    -0.24700
C174        C  0.82356235  0.40795950  0.48890083    -0.24000
C175        C  0.80946127  0.41913666  0.01021926     0.40600
C176        C  0.80684185  0.45364162  0.01266286    -0.26500
O177        O  0.83900834  0.48075562  0.43375134    -0.58400
H178        H  0.84274835  0.41876464  0.43742137     0.16200
O179        O  0.79728277  0.40014347  0.03648795    -0.59800
H180        H  0.79535587  0.46440788  0.03503060     0.14700
H181        H  0.91254598  0.55306973  0.99635600     0.46500
H182        H  0.81833290  0.48689089  0.42170864     0.41900
H183        H  0.77307489  0.40328234  0.03594729     0.45400
H184        H  0.77206265  0.52843643  0.45802027     0.36800
C185        C  0.28211229  0.53929991  0.01999235    -0.27400
C186        C  0.26336541  0.52608817  0.49294297     0.02200
C187        C  0.24486892  0.54226770  0.46765205     0.30300
C188        C  0.24008463  0.57635163  0.46935894    -0.19200
C189        C  0.25961705  0.59082987  0.99643386    -0.28600
C190        C  0.27828323  0.57370435  0.02169450     0.44300
C191        C  0.26100597  0.48960511  0.49619533     0.05500
O192        O  0.22824506  0.52447269  0.44315195    -0.57100
H193        H  0.22260789  0.58618197  0.45117302     0.18400
O194        O  0.29171350  0.59026949  0.04906746    -0.63800
H195        H  0.29499558  0.52667092  0.04055780     0.16900
C196        C  0.27235734  0.46798305  0.47074261     0.29100
C197        C  0.26414023  0.43427168  0.47208559    -0.24700
C198        C  0.24273191  0.41735069  0.00228809    -0.24000
C199        C  0.23345430  0.44099683  0.02769335     0.40600
C200        C  0.24452113  0.47364607  0.02549641    -0.26500
O201        O  0.29034195  0.47977745  0.44365413    -0.58400
H202        H  0.27234769  0.41852221  0.45140740     0.16200
O203        O  0.20989043  0.43448373  0.05190139    -0.59800
H204        H  0.23610692  0.49124418  0.04444550     0.14700
H205        H  0.27768371  0.58455441  0.06898841     0.46500
H206        H  0.31366604  0.47684174  0.45056777     0.41900
H207        H  0.21999428  0.43971088  0.07446349     0.45400
H208        H  0.24203134  0.52598286  0.42226496     0.36800
C209        C  0.93033541  0.39182396  0.12496919    -0.27400
C210        C  0.92206815  0.36240692  0.10815021     0.02200
C211        C  0.93573202  0.33256195  0.12010288     0.30300
C212        C  0.95702509  0.33243369  0.14869070    -0.19200
C213        C  0.96512311  0.36186937  0.16588137    -0.28600
C214        C  0.95141630  0.39179880  0.15354023     0.44300
C215        C  0.90020840  0.36344439  0.07736273     0.05500
O216        O  0.92983734  0.30369089  0.10279488    -0.57100
H217        H  0.96757255  0.30923624  0.15707317     0.18400
O218        O  0.95888683  0.42142323  0.16869387    -0.63800
H219        H  0.92031320  0.41503928  0.11589686     0.16900
C220        C  0.86973578  0.34702971  0.07671407     0.29100
C221        C  0.84993343  0.34786269  0.04706010    -0.24700
C222        C  0.85980494  0.36498906  0.01704649    -0.24000
C223        C  0.88973510  0.38335940  0.01914798     0.40600
C224        C  0.90951597  0.38208538  0.04873906    -0.26500
O225        O  0.85812871  0.33188631  0.10578659    -0.58400
H226        H  0.82623254  0.33583436  0.04845730     0.16200
O227        O  0.89959709  0.40326719  0.99251154    -0.59800
H228        H  0.93241863  0.39582973  0.04927784     0.14700
H229        H  0.94060643  0.42567158  0.18484712     0.46500
H230        H  0.85882510  0.30790408  0.10090085     0.41900
H231        H  0.92102634  0.39441500  0.98468078     0.45400
H232        H  0.91588482  0.29022961  0.11829794     0.36800
C233        C  0.92122288  0.38444045  0.35818632    -0.27400
C234        C  0.90442267  0.35456818  0.36304346     0.02200
C235        C  0.91163324  0.32750262  0.34202096     0.30300
C236        C  0.93624845  0.33025222  0.31709332    -0.19200
C237        C  0.95412080  0.35984302  0.31295543    -0.28600
C238        C  0.94585520  0.38728881  0.33337563     0.44300
C239        C  0.88423070  0.35068148  0.39409372     0.05500
O240        O  0.89545371  0.29805257  0.34636344    -0.57100
H241        H  0.94188047  0.30889991  0.30152329     0.18400
O242        O  0.96322124  0.41625944  0.33109873    -0.63800
H243        H  0.91628747  0.40518787  0.37489363     0.16900
C244        C  0.89984828  0.34338666  0.42525838     0.29100
C245        C  0.88294177  0.34703246  0.45601243    -0.24700
C246        C  0.85040474  0.35929785  0.45662726    -0.24000
C247        C  0.83321266  0.36045562  0.42469530     0.40600
C248        C  0.85050816  0.35748708  0.39373346    -0.26500
O249        O  0.93246825  0.33481007  0.42603712    -0.58400
H250        H  0.89617851  0.34104870  0.47925826     0.16200
O251        O  0.80051796  0.36872011  0.42342177    -0.59800
H252        H  0.83795873  0.36206891  0.36961173     0.14700
H253        H  0.94996538  0.43061891  0.31577446     0.46500
H254        H  0.93270400  0.31051222  0.42290193     0.41900
H255        H  0.78866854  0.34752032  0.42008528     0.45400
H256        H  0.90863491  0.28570506  0.36356496     0.36800
C257        C  0.16032803  0.39671408  0.43237062    -0.27400
C258        C  0.16914129  0.37721879  0.40419949     0.02200
C259        C  0.20073483  0.36315301  0.40376975     0.30300
C260        C  0.22161450  0.36628943  0.43242466    -0.19200
C261        C  0.21153437  0.38289234  0.46258455    -0.28600
C262        C  0.18148610  0.40070688  0.46050725     0.44300
C263        C  0.14539107  0.37327142  0.37513476     0.05500
O264        O  0.21207927  0.34782809  0.37476359    -0.57100
H265        H  0.24587004  0.35560053  0.43049698     0.18400
O266        O  0.17137697  0.42043883  0.48696335    -0.63800
H267        H  0.13659004  0.40882355  0.43279878     0.16900
C268        C  0.13617189  0.34199625  0.36230751     0.29100
C269        C  0.11190622  0.33939418  0.33648231    -0.24700
C270        C  0.09633951  0.36764749  0.32310308    -0.24000
C271        C  0.10557800  0.39885516  0.33637840     0.40600
C272        C  0.12994682  0.40137437  0.36167114    -0.26500
O273        O  0.14928845  0.31379106  0.37625844    -0.58400
H274        H  0.10514582  0.31515285  0.32711344     0.16200
O275        O  0.09096234  0.42733142  0.32495217    -0.59800
H276        H  0.13655858  0.42563235  0.37115738     0.14700
H277        H  0.17448049  0.44339141  0.47867619     0.46500
H278        H  0.16217343  0.30346039  0.35759328     0.41900
H279        H  0.07298064  0.43173004  0.34150552     0.45400
H280        H  0.21647245  0.32464196  0.38155497     0.36800
C281        C  0.14238334  0.39070878  0.13960626    -0.27400
C282        C  0.14988014  0.36080368  0.12341652     0.02200
C283        C  0.13466921  0.33158823  0.13461567     0.30300
C284        C  0.11178845  0.33259063  0.16133559    -0.19200
C285        C  0.10310819  0.36270743  0.17679689    -0.28600
C286        C  0.11914930  0.39187602  0.16605114     0.44300
C287        C  0.17091850  0.36107270  0.09258902     0.05500
O288        O  0.14190543  0.30199801  0.11939979    -0.57100
H289        H  0.10005005  0.30977091  0.16916627     0.18400
O290        O  0.11170525  0.42178310  0.18043038    -0.63800
H291        H  0.15379017  0.41341035  0.13088774     0.16900
C292        C  0.15668433  0.35794651  0.05994685     0.29100
C293        C  0.17592061  0.36191201  0.03060682    -0.24700
C294        C  0.20953573  0.37098423  0.03281919    -0.24000
C295        C  0.22433322  0.37021492  0.06604793     0.40600
C296        C  0.20488454  0.36599025  0.09547198    -0.26500
O297        O  0.12365293  0.35168716  0.05641702    -0.58400
H298        H  0.16376815  0.35818271  0.00627813     0.16200
O299        O  0.25761607  0.37486242  0.06999983    -0.59800
H300        H  0.21625651  0.36735188  0.12062791     0.14700
H301        H  0.12721197  0.42420148  0.20000769     0.46500
H302        H  0.11300936  0.37369055  0.05627034     0.41900
H303        H  0.26034367  0.39652482  0.08147760     0.45400
H304        H  0.12367724  0.29793771  0.10291674     0.36800
C305        C  0.75829020  0.74664918  0.00859479    -0.27400
C306        C  0.74950394  0.71428837  0.51116001     0.02200
C307        C  0.71585288  0.70626042  0.51341002     0.30300
C308        C  0.69209823  0.73135648  0.51441886    -0.19200
C309        C  0.70099321  0.76501313  0.51132482    -0.28600
C310        C  0.73576318  0.77266857  0.00979716     0.44300
C311        C  0.77551878  0.68861236  0.50866842     0.05500
O312        O  0.70576864  0.67394792  0.51412641    -0.57100
H313        H  0.66674579  0.72395672  0.51742294     0.18400
O314        O  0.74753846  0.80427093  0.00687629    -0.63800
H315        H  0.78421958  0.75242674  0.00622067     0.16900
C316        C  0.80043652  0.69126010  0.48387670     0.29100
C317        C  0.82634518  0.66876583  0.48343146    -0.24700
C318        C  0.82366212  0.63816284  0.00450642    -0.24000
C319        C  0.79847137  0.63683844  0.02982925     0.40600
C320        C  0.77365431  0.66084082  0.03087485    -0.26500
O321        O  0.80009583  0.71626740  0.46007537    -0.58400
H322        H  0.84579820  0.67387857  0.46543546     0.16200
O323        O  0.79793676  0.61211384  0.05395382    -0.59800
H324        H  0.75567103  0.65968389  0.05127942     0.14700
H325        H  0.75754718  0.80938957  0.02950020     0.46500
H326        H  0.78738299  0.70744572  0.44034670     0.41900
H327        H  0.80255280  0.62301059  0.07623692     0.45400
H328        H  0.70538871  0.66686234  0.48976257     0.36800
C329        C  0.70705317  0.27282073  0.01944629    -0.27400
C330        C  0.72459919  0.27642408  0.50326143     0.02200
C331        C  0.72118311  0.25306444  0.47697790     0.30300
C332        C  0.69791398  0.22785804  0.47966723    -0.19200
C333        C  0.67970910  0.22157023  0.00109736    -0.28600
C334        C  0.68373742  0.24770765  0.02508179     0.44300
C335        C  0.75133614  0.30113135  0.50182074     0.05500
O336        O  0.74068218  0.25465148  0.44836824    -0.57100
H337        H  0.69545458  0.21168674  0.45787602     0.18400
O338        O  0.66453126  0.24913670  0.05394204    -0.63800
H339        H  0.71025169  0.29195513  0.03855224     0.16900
C340        C  0.74497342  0.33515182  0.50009259     0.29100
C341        C  0.77106366  0.35760833  0.49645138    -0.24700
C342        C  0.80411947  0.34673341  0.49533319    -0.24000
C343        C  0.81296516  0.30827213  0.98817605     0.40600
C344        C  0.78657716  0.28602712  0.98888180    -0.26500
O345        O  0.71329194  0.34667190  0.50121058    -0.58400
H346        H  0.76491915  0.38339342  0.49374945     0.16200
O347        O  0.84428160  0.29590169  0.99072744    -0.59800
H348        H  0.79155330  0.25987328  0.99152636     0.14700
H349        H  0.67981904  0.24780050  0.07377902     0.46500
H350        H  0.70503647  0.34517457  0.47727017     0.41900
H351        H  0.84860704  0.28511379  0.96837396     0.45400
H352        H  0.72848408  0.26885765  0.43191944     0.36800
C353        C  0.69987840  0.86895431  0.07310806    -0.27400
C354        C  0.69303028  0.85494437  0.10503812     0.02200
C355        C  0.68662567  0.82099842  0.10719982     0.30300
C356        C  0.68388399  0.80221158  0.07717341    -0.19200
C357        C  0.68596558  0.81697832  0.04425688    -0.28600
C358        C  0.69764160  0.85026301  0.04300465     0.44300
C359        C  0.69052598  0.87667299  0.13531596     0.05500
O360        O  0.68165882  0.80622680  0.13843998    -0.57100
H361        H  0.67750865  0.77633178  0.07950452     0.18400
O362        O  0.70719097  0.86510998  0.01298010    -0.63800
H363        H  0.70648250  0.89483987  0.07139584     0.16900
C364        C  0.71859483  0.89117143  0.15010313     0.29100
C365        C  0.71519280  0.91488680  0.17595857    -0.24700
C366        C  0.68386352  0.92464893  0.18742443    -0.24000
C367        C  0.65577311  0.90924553  0.17305623     0.40600
C368        C  0.65931749  0.88541028  0.14736034    -0.26500
O369        O  0.74941142  0.88281981  0.13892270    -0.58400
H370        H  0.73720402  0.92597740  0.18669299     0.16200
O371        O  0.62470371  0.91724013  0.18377421    -0.59800
H372        H  0.63752555  0.87442063  0.13599652     0.14700
H373        H  0.73145300  0.86737164  0.01451291     0.46500
H374        H  0.75593176  0.86356484  0.15315587     0.41900
H375        H  0.61722029  0.93487458  0.16787959     0.45400
H376        H  0.70399215  0.80068507  0.14701492     0.36800
C377        C  0.65404284  0.85774842  0.44027249    -0.27400
C378        C  0.67546179  0.84947970  0.41363987     0.02200
C379        C  0.69623960  0.82208060  0.41776479     0.30300
C380        C  0.69630899  0.80428569  0.44865128    -0.19200
C381        C  0.67609958  0.81346602  0.47665578    -0.28600
C382        C  0.65384883  0.84007115  0.47111902     0.44300
C383        C  0.67672503  0.87090028  0.38265085     0.05500
O384        O  0.71639537  0.81220938  0.39158529    -0.57100
H385        H  0.71193277  0.78281394  0.44976962     0.18400
O386        O  0.63182672  0.84916598  0.49599203    -0.63800
H387        H  0.63775895  0.87873605  0.43757839     0.16900
C388        C  0.64765500  0.88069524  0.36569826     0.29100
C389        C  0.64873379  0.90516964  0.34036990    -0.24700
C390        C  0.67864592  0.92017560  0.33100408    -0.24000
C391        C  0.70800657  0.90893908  0.34660292     0.40600
C392        C  0.70685040  0.88452268  0.37214193    -0.26500
O393        O  0.61786554  0.86709372  0.37433053    -0.58400
H394        H  0.62584271  0.91279063  0.32845748     0.16200
O395        O  0.73793855  0.92191542  0.33757199    -0.59800
H396        H  0.72948208  0.87733014  0.38486821     0.14700
H397        H  0.63821702  0.87175597  0.50316306     0.46500
H398        H  0.61599466  0.84680558  0.36029372     0.41900
H399        H  0.74242478  0.93949123  0.35465776     0.45400
H400        H  0.70369992  0.79511871  0.37900506     0.36800
C401        C  0.69137758  0.10264238  0.37647431    -0.27400
C402        C  0.66379080  0.10050730  0.39807856     0.02200
C403        C  0.63933549  0.07674732  0.39039005     0.30300
C404        C  0.64226359  0.05664295  0.36133577    -0.19200
C405        C  0.66991310  0.05869462  0.33988786    -0.28600
C406        C  0.69488978  0.08161531  0.34812364     0.44300
C407        C  0.66045746  0.12357283  0.42788044     0.05500
O408        O  0.61258529  0.07252998  0.41130695    -0.57100
H409        H  0.62305566  0.03875943  0.35603803     0.18400
O410        O  0.72231238  0.08456447  0.32795163    -0.63800
H411        H  0.71024675  0.12098407  0.38129659     0.16900
C412        C  0.68698645  0.13026565  0.45019768     0.29100
C413        C  0.68355539  0.15327336  0.47675182    -0.24700
C414        C  0.65373217  0.17039221  0.48252453    -0.24000
C415        C  0.62614468  0.16035128  0.46222981     0.40600
C416        C  0.63024376  0.13888605  0.43442977    -0.26500
O417        O  0.71644197  0.11422482  0.44661401    -0.58400
H418        H  0.70471087  0.15811273  0.49297479     0.16200
O419        O  0.59458832  0.16945256  0.46988695    -0.59800
H420        H  0.60914079  0.13376973  0.41823467     0.14700
H421        H  0.74003723  0.07298151  0.34073218     0.46500
H422        H  0.71400460  0.09344389  0.45985250     0.41900
H423        H  0.58518105  0.15067953  0.48297935     0.45400
H424        H  0.62025125  0.05778047  0.43003013     0.36800
C425        C  0.64322415  0.10310421  0.15088693    -0.27400
C426        C  0.67002587  0.10625621  0.12838766     0.02200
C427        C  0.69902028  0.08843306  0.13582763     0.30300
C428        C  0.70069050  0.06787647  0.16490568    -0.19200
C429        C  0.67352286  0.06402343  0.18682962    -0.28600
C430        C  0.64473085  0.08227915  0.17968544     0.44300
C431        C  0.66710931  0.12787267  0.09724451     0.05500
O432        O  0.72558995  0.09010188  0.11431682    -0.57100
H433        H  0.72301048  0.05398461  0.16959923     0.18400
O434        O  0.61775686  0.07990752  0.20057790    -0.63800
H435        H  0.62088073  0.11694788  0.14615295     0.16900
C436        C  0.63983586  0.12532961  0.07510890     0.29100
C437        C  0.63656977  0.14677114  0.04713386    -0.24700
C438        C  0.66003286  0.17170745  0.03971514    -0.24000
C439        C  0.68882145  0.17239750  0.06068998     0.40600
C440        C  0.69161622  0.15115709  0.08933280    -0.26500
O441        O  0.61621501  0.10161904  0.08030816    -0.58400
H442        H  0.61502554  0.14402494  0.03098225     0.16200
O443        O  0.71556947  0.19135606  0.05212405    -0.59800
H444        H  0.71334292  0.15288621  0.10541760     0.14700
H445        H  0.62022887  0.09818050  0.21733338     0.46500
H446        H  0.62245711  0.08303554  0.06514428     0.41900
H447        H  0.72046454  0.20526445  0.07246960     0.45400
H448        H  0.72182925  0.07253257  0.09704178     0.36800
C449        C  0.38616746  0.72418714  0.02337941    -0.23000
C450        C  0.35901370  0.72457386  0.49308451     0.02200
C451        C  0.35891589  0.74756577  0.46622705     0.30300
C452        C  0.38066651  0.77429048  0.46665619    -0.19200
C453        C  0.40739490  0.77419083  0.99484629    -0.28600
C454        C  0.40866929  0.75059297  0.02204227     0.44300
C455        C  0.33172719  0.70047285  0.49605847     0.05500
O456        O  0.33635724  0.74499352  0.44007065    -0.57100
H457        H  0.37696618  0.79240991  0.44675724     0.18400
O458        O  0.43162444  0.75339949  0.04780359    -0.63800
H459        H  0.38709546  0.70710150  0.04479075     0.16900
C460        C  0.33591587  0.66661215  0.48993133     0.29100
C461        C  0.30885124  0.64501324  0.49205236    -0.24700
C462        C  0.28072621  0.65133937  0.00399967    -0.24000
C463        C  0.27643785  0.68577857  0.00958027     0.40600
C464        C  0.30333535  0.70731951  0.00947070    -0.26500
O465        O  0.36613052  0.65451938  0.48085550    -0.58400
H466        H  0.31306832  0.61940104  0.48589984     0.16200
O467        O  0.24582577  0.69879923  0.01522330    -0.59800
H468        H  0.29922943  0.73338494  0.01393711     0.14700
H469        H  0.41928525  0.76117379  0.06815028     0.46500
H470        H  0.36686767  0.65639907  0.45547046     0.41900
H471        H  0.24023796  0.71125482  0.99400265     0.45400
H472        H  0.34801416  0.73322014  0.42145127     0.36800
C473        C  0.52502000  0.81428949  0.99406406    -0.27400
C474        C  0.53381119  0.78229556  0.49887987     0.02200
C475        C  0.51020631  0.75712833  0.49581177     0.30300
C476        C  0.47673128  0.76518193  0.49188010    -0.19200
C477        C  0.46593397  0.79844822  0.49252105    -0.28600
C478        C  0.49173410  0.82175964  0.99148705     0.44300
C479        C  0.56893992  0.77581984  0.50672661     0.05500
O480        O  0.51932324  0.72467327  0.49855362    -0.57100
H481        H  0.45956513  0.74499718  0.48925963     0.18400
O482        O  0.48296744  0.85440499  0.99191053    -0.63800
H483        H  0.54263644  0.83437086  0.99564776     0.16900
C484        C  0.58300830  0.78961918  0.53628405     0.29100
C485        C  0.61711715  0.79215614  0.53947957    -0.24700
C486        C  0.63865237  0.78101114  0.51336673    -0.24000
C487        C  0.62623289  0.76475912  0.98588118     0.40600
C488        C  0.59201352  0.76177561  0.98185964    -0.26500
O489        O  0.56336080  0.80275465  0.56137305    -0.58400
H490        H  0.62549833  0.80621971  0.56120003     0.16200
O491        O  0.64605436  0.75287525  0.96031091    -0.59800
H492        H  0.58219598  0.75041877  0.95883821     0.14700
H493        H  0.48832530  0.86293867  0.96870733     0.46500
H494        H  0.56461015  0.82704583  0.55823355     0.41900
H495        H  0.64424481  0.72848756  0.96166426     0.45400
H496        H  0.52333755  0.71736165  0.47467398     0.36800
C497        C  0.36584083  0.28531897  0.47064177    -0.27400
C498        C  0.33696586  0.28184862  0.99603907     0.02200
C499        C  0.33653587  0.25474285  0.01849683     0.30300
C500        C  0.36074062  0.23044587  0.01637891    -0.19200
C501        C  0.38775432  0.23297692  0.99349457    -0.28600
C502        C  0.39005146  0.26054302  0.47016355     0.44300
C503        C  0.31039831  0.30720431  0.99708949     0.05500
O504        O  0.31218064  0.25141768  0.04255651    -0.57100
H505        H  0.35719422  0.20916940  0.03265389     0.18400
O506        O  0.41458267  0.26266178  0.44620233    -0.63800
H507        H  0.36758377  0.30558634  0.45255581     0.16900
C508        C  0.31778916  0.34103234  0.99937174     0.29100
C509        C  0.29246911  0.36439855  0.00119086    -0.24700
C510        C  0.25886006  0.35509734  0.99952878    -0.24000
C511        C  0.25182859  0.32068350  0.99832811     0.40600
C512        C  0.27728039  0.29743563  0.99694524    -0.26500
O513        O  0.34984898  0.35162618  0.00053925    -0.58400
H514        H  0.29986662  0.38973153  0.00472513     0.16200
O515        O  0.21992818  0.30946200  0.99896723    -0.59800
H516        H  0.27095534  0.27149092  0.99542369     0.14700
H517        H  0.42649110  0.28360367  0.45098145     0.46500
H518        H  0.35620191  0.35057820  0.02510528     0.41900
H519        H  0.21986040  0.30420234  0.46531214     0.45400
H520        H  0.32214163  0.25913290  0.06440326     0.36800
C521        C  0.57415934  0.24285192  0.48553288    -0.27400
C522        C  0.55391289  0.23450336  0.01028807     0.02200
C523        C  0.56835026  0.22258895  0.04061311     0.30300
C524        C  0.60113531  0.21225148  0.04060549    -0.19200
C525        C  0.62001983  0.21255767  0.01010566    -0.28600
C526        C  0.60724999  0.23324603  0.48689668     0.44300
C527        C  0.51826147  0.22946234  0.00467498     0.05500
O528        O  0.54961869  0.21752511  0.06935531    -0.57100
H529        H  0.61088277  0.20257027  0.06440069     0.18400
O530        O  0.62647029  0.23841870  0.45855238    -0.63800
H531        H  0.56426843  0.25287205  0.46184951     0.16900
C532        C  0.49461921  0.25455862  0.00739419     0.29100
C533        C  0.46099620  0.24719507  0.00233860    -0.24700
C534        C  0.45046582  0.21484233  0.99380844    -0.24000
C535        C  0.47534585  0.19003452  0.49353640     0.40600
C536        C  0.50827252  0.19804626  0.49850501    -0.26500
O537        O  0.50392439  0.28593632  0.01629293    -0.58400
H538        H  0.44336719  0.26667296  0.00644957     0.16200
O539        O  0.46752183  0.15764418  0.48703070    -0.59800
H540        H  0.52655323  0.17865129  0.49699523     0.14700
H541        H  0.63429168  0.26155475  0.46059251     0.46500
H542        H  0.50928901  0.29701923  0.99431738     0.41900
H543        H  0.47747692  0.15236940  0.46449468     0.45400
H544        H  0.54737327  0.23960710  0.07998754     0.36800
C545        C  0.43677427  0.89105125  0.34393134    -0.27400
C546        C  0.41059590  0.88664836  0.36680369     0.02200
C547        C  0.38092529  0.90369989  0.36094663     0.30300
C548        C  0.37843365  0.92630517  0.33385182    -0.19200
C549        C  0.40531640  0.93231689  0.31218334    -0.28600
C550        C  0.43425992  0.91345877  0.31665244     0.44300
C551        C  0.41548931  0.86700766  0.39855898     0.05500
O552        O  0.35457974  0.89925718  0.38235093    -0.57100
H553        H  0.35577181  0.94000871  0.33060537     0.18400
O554        O  0.46063731  0.91735077  0.29516657    -0.63800
H555        H  0.45974474  0.87808308  0.34803108     0.16900
C556        C  0.42556193  0.83395406  0.39776411     0.29100
C557        C  0.43034612  0.81660288  0.42852168    -0.24700
C558        C  0.42422051  0.83106159  0.46100844    -0.24000
C559        C  0.41674412  0.86551629  0.46121043     0.40600
C560        C  0.41199233  0.88258636  0.43026739    -0.26500
O561        O  0.42950145  0.81799659  0.36704756    -0.58400
H562        H  0.43778231  0.79098207  0.42703728     0.16200
O563        O  0.41782636  0.88392309  0.49070248    -0.59800
H564        H  0.40651356  0.90874901  0.43107256     0.14700
H565        H  0.45706929  0.90110560  0.27648988     0.46500
H566        H  0.45362222  0.81603784  0.36392755     0.41900
H567        H  0.39590738  0.89092296  0.99748222     0.45400
H568        H  0.34181937  0.88082740  0.37213632     0.36800
C569        C  0.38270836  0.88886073  0.13673459    -0.27400
C570        C  0.40867261  0.89087803  0.11315927     0.02200
C571        C  0.43051254  0.91791118  0.11482416     0.30300
C572        C  0.42749405  0.94108807  0.14114593    -0.19200
C573        C  0.40245100  0.93830980  0.16563731    -0.28600
C574        C  0.37924352  0.91256997  0.16260924     0.44300
C575        C  0.41287354  0.86488431  0.08680193     0.05500
O576        O  0.45389946  0.92258601  0.08991026    -0.57100
H577        H  0.44475268  0.96149454  0.14224052     0.18400
O578        O  0.35406142  0.90943359  0.18570314    -0.63800
H579        H  0.36542290  0.86850379  0.13546736     0.16900
C580        C  0.44332191  0.84915650  0.08251733     0.29100
C581        C  0.44805992  0.82783615  0.05486205    -0.24700
C582        C  0.42331444  0.82297844  0.02966910    -0.24000
C583        C  0.39126431  0.83457544  0.03762793     0.40600
C584        C  0.38651224  0.85593778  0.06543980    -0.26500
O585        O  0.46835172  0.85391778  0.10581976    -0.58400
H586        H  0.47166494  0.81578913  0.05335522     0.16200
O587        O  0.36520094  0.82828541  0.01616504    -0.59800
H588        H  0.36247972  0.86681219  0.06924572     0.14700
H589        H  0.33464944  0.91940588  0.17419687     0.46500
H590        H  0.48698556  0.86328994  0.09261699     0.41900
H591        H  0.35229859  0.81073081  0.02785001     0.45400
H592        H  0.47542761  0.92249810  0.10200417     0.36800
C593        C  0.42344196  0.09767193  0.36859302    -0.27400
C594        C  0.39841332  0.12150210  0.36954776     0.02200
C595        C  0.37403841  0.12134502  0.34380097     0.30300
C596        C  0.37475076  0.09733985  0.31782575    -0.19200
C597        C  0.39977898  0.07344859  0.31689133    -0.28600
C598        C  0.42423015  0.07378267  0.34268406     0.44300
C599        C  0.39910814  0.14686275  0.39704125     0.05500
O600        O  0.35055999  0.14560394  0.34281676    -0.57100
H601        H  0.35602999  0.09783177  0.29796081     0.18400
O602        O  0.44884461  0.05067060  0.34309360    -0.63800
H603        H  0.44242008  0.09751687  0.38821659     0.16900
C604        C  0.37383498  0.14968895  0.42139326     0.29100
C605        C  0.37796560  0.17046315  0.44994595    -0.24700
C606        C  0.40782846  0.18756765  0.45580524    -0.24000
C607        C  0.43038678  0.18883686  0.42779347     0.40600
C608        C  0.42651018  0.16754510  0.39982256    -0.26500
O609        O  0.34625914  0.13025205  0.41904725    -0.58400
H610        H  0.35881783  0.17096209  0.46918993     0.16200
O611        O  0.45658246  0.21027603  0.42725297    -0.59800
H612        H  0.44527083  0.16708046  0.38014000     0.14700
H613        H  0.43922398  0.03108248  0.35467596     0.46500
H614        H  0.32809924  0.14555851  0.41304132     0.41900
H615        H  0.45213029  0.22586258  0.40815630     0.45400
H616        H  0.32946706  0.13434105  0.34809582     0.36800
C617        C  0.41030869  0.16978487  0.08328431    -0.27400
C618        C  0.40391583  0.13631501  0.07812195     0.02200
C619        C  0.40141711  0.12403278  0.04467097     0.30300
C620        C  0.40463355  0.14537920  0.01668507    -0.19200
C621        C  0.40971194  0.17975359  0.02119302    -0.28600
C622        C  0.41382333  0.19126661  0.05547085     0.44300
C623        C  0.40228970  0.11406553  0.10795253     0.05500
O624        O  0.39679313  0.09093300  0.03903107    -0.57100
H625        H  0.40467728  0.13407852  0.99167951     0.18400
O626        O  0.42009902  0.22394366  0.06206233    -0.63800
H627        H  0.41289165  0.17930461  0.10912800     0.16900
C628        C  0.43054573  0.10828033  0.12782915     0.29100
C629        C  0.42882048  0.08766083  0.15648099    -0.24700
C630        C  0.39904151  0.07242133  0.16583994    -0.24000
C631        C  0.37076630  0.07786797  0.14537198     0.40600
C632        C  0.37254233  0.09876356  0.11674154    -0.26500
O633        O  0.46025764  0.12166134  0.11853973    -0.58400
H634        H  0.45109039  0.08334819  0.17116941     0.16200
O635        O  0.34143656  0.06269441  0.15275866    -0.59800
H636        H  0.35070638  0.10299572  0.10130836     0.14700
H637        H  0.44325949  0.22477938  0.07021439     0.46500
H638        H  0.46360043  0.14074921  0.13405252     0.41900
H639        H  0.34141017  0.04209500  0.13904322     0.45400
H640        H  0.41921651  0.08137388  0.03846884     0.36800
O641        O  0.37499652  0.96830903  0.71050406    -0.71600
O642        O  0.37253096  0.03604831  0.77761264    -0.71800
O643        O  0.37211570  0.03446335  0.70820045    -0.71600
O644        O  0.37604950  0.96980828  0.77952242    -0.71700
O645        O  0.42933464  0.97073649  0.77663165    -0.71600
O646        O  0.42528777  0.03897759  0.71036943    -0.71600
O647        O  0.42591412  0.03656931  0.77947055    -0.71600
O648        O  0.42823237  0.97306841  0.70782421    -0.71800
V649        V  0.37489715  0.00225766  0.74398002     1.35200
V650        V  0.42614195  0.00483672  0.74359231     1.35200
C651        C  0.40194795  0.95968082  0.69731861     0.77700
C652        C  0.39877653  0.04713082  0.79080613     0.77700
C653        C  0.39827706  0.04761992  0.69697207     0.77600
C654        C  0.40357004  0.95884591  0.78980348     0.77600
C655        C  0.41384309  0.20424560  0.49155030    -0.02300
C656        C  0.42882965  0.80864542  0.49363153    -0.02300
O657        O  0.65453497  0.95753195  0.72195759    -0.71600
O658        O  0.64664204  0.02076810  0.79303309    -0.71800
O659        O  0.64976009  0.02380223  0.72437474    -0.71600
O660        O  0.65131947  0.95499695  0.79033666    -0.71700
O661        O  0.70402704  0.96154851  0.79610391    -0.71600
O662        O  0.70317793  0.02492519  0.72422081    -0.71600
O663        O  0.69963862  0.02762665  0.79304246    -0.71600
O664        O  0.70763246  0.95874852  0.72759206    -0.71800
V665        V  0.65156357  0.98941138  0.75738113     1.35200
V666        V  0.70264282  0.99317436  0.76015989     1.35200
C667        C  0.68238167  0.94638726  0.71349912     0.77700
C668        C  0.67179631  0.03512033  0.80508604     0.77700
C669        C  0.67617749  0.03584347  0.71271305     0.77600
C670        C  0.67789535  0.94691786  0.80501790     0.77600
C671        C  0.65262105  0.19581238  0.51294926    -0.02300
C672        C  0.67637855  0.79556157  0.01228576    -0.02300
O673        O  0.00385619  0.39265744  0.70635938    -0.71600
O674        O  0.06688558  0.39530162  0.77798508    -0.71800
O675        O  0.06959044  0.39613653  0.70916664    -0.71600
O676        O  0.00074992  0.39099274  0.77500612    -0.71700
O677        O  0.00241132  0.33758884  0.77204371    -0.71600
O678        O  0.07402635  0.34278634  0.71085495    -0.71600
O679        O  0.06828806  0.34182627  0.77937751    -0.71600
O680        O  0.00831265  0.33943569  0.70352974    -0.71800
V681        V  0.03532745  0.39274592  0.74218507     1.35200
V682        V  0.03820388  0.34141668  0.74150209     1.35200
C683        C  0.99564462  0.36589762  0.69217045     0.77700
C684        C  0.07844577  0.36922829  0.79107422     0.77700
C685        C  0.08363829  0.37011732  0.69892976     0.77600
C686        C  0.98935930  0.36323776  0.78420584     0.77600
C687        C  0.23338015  0.38373905  0.49585237    -0.02300
C688        C  0.83727945  0.36714271  0.98427698    -0.02300
O689        O  0.01545451  0.66490705  0.72394848    -0.71600
O690        O  0.08597852  0.67108866  0.78721885    -0.71800
O691        O  0.08135407  0.67015180  0.71830356    -0.71600
O692        O  0.02021351  0.66537183  0.79252776    -0.71700
O693        O  0.02246264  0.61194790  0.79031502    -0.71600
O694        O  0.08763720  0.61711857  0.72151570    -0.71600
O695        O  0.08828065  0.61767342  0.79010352    -0.71600
O696        O  0.02210422  0.61176488  0.72167275    -0.71800
V697        V  0.05086292  0.66692273  0.75550932     1.35200
V698        V  0.05504169  0.61567084  0.75592616     1.35200
C699        C  0.00712393  0.63734045  0.71162643     0.77700
C700        C  0.09878999  0.64547565  0.80000395     0.77700
C701        C  0.09537120  0.64421381  0.70762154     0.77600
C702        C  0.01023816  0.63760432  0.80342390     0.77600
C703        C  0.24590647  0.63377441  0.49973261    -0.02300
C704        C  0.85742340  0.61719645  0.50676789    -0.02300
C705        C  0.93185554  0.62837279  0.94855311    -0.27400
C706        C  0.91811892  0.62564942  0.91580529     0.02200
C707        C  0.88470997  0.61751062  0.91252245     0.30300
C708        C  0.86519135  0.61390031  0.94183516    -0.19200
C709        C  0.87803861  0.61846925  0.97538159    -0.28600
C710        C  0.91285820  0.62342096  0.97809810     0.44300
C711        C  0.93959298  0.62959630  0.88543134     0.05500
O712        O  0.87082188  0.61304733  0.88073702    -0.57100
H713        H  0.83938804  0.60798798  0.93836057     0.18400
O714        O  0.92925816  0.62206158  0.00893515    -0.63800
H715        H  0.95802309  0.63297318  0.95128148     0.16900
C716        C  0.95497547  0.65997526  0.87823756     0.29100
C717        C  0.97747529  0.66250808  0.85116582    -0.24700
C718        C  0.98505957  0.63491147  0.83088230    -0.24000
C719        C  0.96869125  0.60472359  0.83756166     0.40600
C720        C  0.94616474  0.60233337  0.86456621    -0.26500
O721        O  0.94839014  0.68725623  0.89778607    -0.58400
H722        H  0.98941497  0.68600189  0.84644122     0.16200
O723        O  0.97403035  0.57748492  0.81751612    -0.59800
H724        H  0.93432389  0.57886211  0.86973003     0.14700
H725        H  0.94521596  0.60364428  0.00721512     0.46500
H726        H  0.92847985  0.69721466  0.88728084     0.41900
H727        H  0.99006437  0.56384881  0.83051774     0.45400
H728        H  0.86560444  0.63557148  0.87233118     0.36800
C729        C  0.90583041  0.65741961  0.58192616    -0.27400
C730        C  0.91042582  0.63041487  0.60388487     0.02200
C731        C  0.89320989  0.60108952  0.59768043     0.30300
C732        C  0.87454010  0.59777978  0.56785246    -0.19200
C733        C  0.87398614  0.62279925  0.54239981    -0.28600
C734        C  0.88733713  0.65404394  0.55163814     0.44300
C735        C  0.93469422  0.63208180  0.63200763     0.05500
O736        O  0.89423185  0.57564432  0.62101256    -0.57100
H737        H  0.86082276  0.57510467  0.56508096     0.18400
O738        O  0.88352288  0.68097221  0.53053849    -0.63800
H739        H  0.91786250  0.68072078  0.58740861     0.16900
C740        C  0.96143656  0.61002271  0.63271280     0.29100
C741        C  0.98424676  0.61140330  0.65944854    -0.24700
C742        C  0.98131333  0.63515919  0.68529016    -0.24000
C743        C  0.95456633  0.65724039  0.68469905     0.40600
C744        C  0.93141694  0.65559469  0.65806776    -0.26500
O745        O  0.96576973  0.58733765  0.60704920    -0.58400
H746        H  0.00486025  0.59447648  0.65940304     0.16200
O747        O  0.95013784  0.67951855  0.71072224    -0.59800
H748        H  0.91075369  0.67244540  0.65789220     0.14700
H749        H  0.90580331  0.68653082  0.52197925     0.46500
H750        H  0.97759050  0.59936987  0.58863199     0.41900
H751        H  0.95889190  0.70070936  0.70182428     0.45400
H752        H  0.90622302  0.55749629  0.60949281     0.36800
C753        C  0.15657020  0.67909677  0.86823792    -0.27400
C754        C  0.17258828  0.65027716  0.87883335     0.02200
C755        C  0.16522364  0.62012104  0.86273701     0.30300
C756        C  0.14165912  0.61905896  0.83656293    -0.19200
C757        C  0.12507131  0.64782545  0.82618425    -0.28600
C758        C  0.13305690  0.67813984  0.84204066     0.44300
C759        C  0.19417317  0.65120210  0.90918591     0.05500
O760        O  0.17914866  0.59126549  0.87415753    -0.57100
H761        H  0.13584274  0.59547147  0.82495841     0.18400
O762        O  0.11686471  0.70668394  0.83352427    -0.63800
H763        H  0.16177916  0.70230327  0.88094350     0.16900
C764        C  0.22739899  0.64229774  0.90729484     0.29100
C765        C  0.24577261  0.63887964  0.93742020    -0.24700
C766        C  0.23070497  0.64138288  0.97002562    -0.24000
C767        C  0.19873283  0.65572876  0.97117411     0.40600
C768        C  0.18079921  0.66000464  0.94079263    -0.26500
O769        O  0.24161754  0.63510014  0.87635431    -0.58400
H770        H  0.27097707  0.63047992  0.93540677     0.16200
O771        O  0.18553063  0.66758713  0.00110848    -0.59800
H772        H  0.15581274  0.66921061  0.94207476     0.14700
H773        H  0.13113505  0.71780084  0.81644819     0.46500
H774        H  0.24746007  0.65677710  0.86620860     0.41900
H775        H  0.15916079  0.66426820  0.50183381     0.45400
H776        H  0.19614277  0.58568810  0.85694412     0.36800
C777        C  0.16037330  0.61682334  0.64385786    -0.27400
C778        C  0.16423487  0.64500654  0.62352666     0.02200
C779        C  0.14634240  0.67368960  0.63150018     0.30300
C780        C  0.12434204  0.67352695  0.65928670    -0.19200
C781        C  0.11998267  0.64494425  0.67942427    -0.28600
C782        C  0.13877272  0.61659678  0.67160277     0.44300
C783        C  0.18539537  0.64281824  0.59280975     0.05500
O784        O  0.14887997  0.70129431  0.61123602    -0.57100
H785        H  0.11016013  0.69553368  0.66455664     0.18400
O786        O  0.13587385  0.58812547  0.69044997    -0.63800
H787        H  0.17400623  0.59461836  0.63788527     0.16900
C788        C  0.21621078  0.65837427  0.59138353     0.29100
C789        C  0.23639562  0.65412088  0.56260317    -0.24700
C790        C  0.22572028  0.63567879  0.53371943    -0.24000
C791        C  0.19567154  0.61787745  0.53710328     0.40600
C792        C  0.17576653  0.62210181  0.56595431    -0.26500
O793        O  0.22740700  0.67663762  0.61864498    -0.58400
H794        H  0.26044839  0.66544973  0.56342124     0.16200
O795        O  0.18423457  0.59810707  0.51113115    -0.59800
H796        H  0.15245314  0.60913254  0.56729575     0.14700
H797        H  0.15258660  0.59009697  0.70894210     0.46500
H798        H  0.22438340  0.70000267  0.61167617     0.41900
H799        H  0.18701554  0.57515974  0.51960613     0.45400
H800        H  0.16392537  0.71633255  0.62382182     0.36800
C801        C  0.86079632  0.52183597  0.50224123    -0.27400
C802        C  0.82713599  0.50933141  0.99555946     0.02200
C803        C  0.80301865  0.53351666  0.99032865     0.30300
C804        C  0.81109197  0.56702896  0.99419529    -0.19200
C805        C  0.84650515  0.58050499  0.50219729    -0.28600
C806        C  0.87032405  0.55483314  0.50407067     0.44300
C807        C  0.82142328  0.47414714  0.98814636     0.05500
O808        O  0.77175157  0.52471946  0.98063447    -0.57100
H809        H  0.79214221  0.58489669  0.98852106     0.18400
O810        O  0.90297206  0.56169751  0.50954259    -0.63800
H811        H  0.87932665  0.50276263  0.50482338     0.16900
C812        C  0.83702549  0.46009901  0.95982855     0.29100
C813        C  0.84024907  0.42600638  0.95751908    -0.24700
C814        C  0.82722565  0.40440019  0.98281321    -0.24000
C815        C  0.81094267  0.42422721  0.51844960     0.40600
C816        C  0.81016509  0.45885993  0.52002619    -0.26500
O817        O  0.85238302  0.47976047  0.93601997    -0.58400
H818        H  0.85590392  0.41750106  0.93714803     0.16200
O819        O  0.80270900  0.40661190  0.54730159    -0.59800
H820        H  0.80350396  0.47079390  0.54385675     0.14700
H821        H  0.91400090  0.55689766  0.48747185     0.46500
H822        H  0.83633224  0.48202260  0.91690733     0.41900
H823        H  0.77867232  0.40956594  0.55009894     0.45400
H824        H  0.77232252  0.52362545  0.95522463     0.36800
C825        C  0.27800865  0.54490279  0.51908586    -0.27400
C826        C  0.26728457  0.52089442  0.99368654     0.02200
C827        C  0.25005518  0.53747760  0.96772329     0.30300
C828        C  0.24598751  0.57158967  0.96940319    -0.19200
C829        C  0.25448912  0.59613270  0.49556559    -0.28600
C830        C  0.27368918  0.57934332  0.52064274     0.44300
C831        C  0.26297059  0.48477930  0.99767950     0.05500
O832        O  0.23338961  0.52011131  0.94290479    -0.57100
H833        H  0.22907444  0.58171039  0.95083799     0.18400
O834        O  0.28754645  0.59631730  0.54749539    -0.63800
H835        H  0.29160012  0.53260403  0.53936486     0.16900
C836        C  0.27159570  0.46234546  0.97189263     0.29100
C837        C  0.26159104  0.42930596  0.97429971    -0.24700
C838        C  0.24469341  0.42079244  0.49882998    -0.24000
C839        C  0.23284556  0.44363132  0.52399445     0.40600
C840        C  0.24189259  0.47696122  0.52273614    -0.26500
O841        O  0.28848397  0.47278622  0.94345290    -0.58400
H842        H  0.26802875  0.41281738  0.95354860     0.16200
O843        O  0.20870170  0.43544057  0.54702083    -0.59800
H844        H  0.23147801  0.49375429  0.54138486     0.14700
H845        H  0.27364283  0.59111608  0.56766564     0.46500
H846        H  0.31164490  0.46625681  0.94763402     0.41900
H847        H  0.21771543  0.44059134  0.57010261     0.45400
H848        H  0.24603615  0.52365238  0.92149977     0.36800
C849        C  0.93743450  0.39528806  0.62170665    -0.27400
C850        C  0.92591241  0.36539873  0.60811950     0.02200
C851        C  0.93782169  0.33550005  0.62193034     0.30300
C852        C  0.96053172  0.33594169  0.64920792    -0.19200
C853        C  0.97180068  0.36591593  0.66310056    -0.28600
C854        C  0.96010240  0.39579793  0.64876473     0.44300
C855        C  0.90235889  0.36613289  0.57882268     0.05500
O856        O  0.92884127  0.30586215  0.60765226    -0.57100
H857        H  0.96946600  0.31269212  0.65932700     0.18400
O858        O  0.97128296  0.42578565  0.66024702    -0.63800
H859        H  0.92875860  0.41852276  0.61126644     0.16900
C860        C  0.87235805  0.34891573  0.57989448     0.29100
C861        C  0.85053464  0.35047915  0.55202337    -0.24700
C862        C  0.85797169  0.36875312  0.52195549    -0.24000
C863        C  0.88736837  0.38789979  0.52243036     0.40600
C864        C  0.90920639  0.38601573  0.55026018    -0.26500
O865        O  0.86307179  0.33242005  0.60912384    -0.58400
H866        H  0.82723233  0.33800542  0.55506291     0.16200
O867        O  0.89465869  0.40905309  0.49590200    -0.59800
H868        H  0.93173371  0.40034690  0.54948003     0.14700
H869        H  0.95455863  0.43334001  0.67694761     0.46500
H870        H  0.86081645  0.30893201  0.60240404     0.41900
H871        H  0.91554037  0.40102515  0.48586543     0.45400
H872        H  0.91686795  0.29374333  0.62590679     0.36800
C873        C  0.92453662  0.38380710  0.85085167    -0.27400
C874        C  0.91336410  0.35220107  0.85974680     0.02200
C875        C  0.92532171  0.32459470  0.84217764     0.30300
C876        C  0.94920986  0.32872239  0.81676485    -0.19200
C877        C  0.96182138  0.36025807  0.80886654    -0.28600
C878        C  0.94853365  0.38803758  0.82558877     0.44300
C879        C  0.89206678  0.34850345  0.88996479     0.05500
O880        O  0.91388637  0.29357082  0.84984662    -0.57100
H881        H  0.95845445  0.30699852  0.80387132     0.18400
O882        O  0.95981510  0.41926540  0.81871739    -0.63800
H883        H  0.91548713  0.40519769  0.86451154     0.16900
C884        C  0.90572918  0.33920843  0.92160339     0.29100
C885        C  0.88750626  0.34287978  0.95164491    -0.24700
C886        C  0.85561185  0.35671621  0.95094033    -0.24000
C887        C  0.84042332  0.36075021  0.91819397     0.40600
C888        C  0.85906287  0.35789199  0.88822636    -0.26500
O889        O  0.93781156  0.32893210  0.92368516    -0.58400
H890        H  0.89914085  0.33567284  0.97546576     0.16200
O891        O  0.80857042  0.37157526  0.91540881    -0.59800
H892        H  0.84812192  0.36438825  0.86372644     0.14700
H893        H  0.94517221  0.42777227  0.80029292     0.46500
H894        H  0.93660889  0.30457628  0.92605482     0.41900
H895        H  0.79556202  0.35179876  0.90894617     0.45400
H896        H  0.93153883  0.28310321  0.86373944     0.36800
C897        C  0.16204492  0.39835671  0.93205851    -0.27400
C898        C  0.17027323  0.37681716  0.90543110     0.02200
C899        C  0.19935903  0.35838924  0.90810943     0.30300
C900        C  0.21871383  0.36020896  0.93794105    -0.19200
C901        C  0.20924037  0.37955842  0.96652175    -0.28600
C902        C  0.18139341  0.40041057  0.96185430     0.44300
C903        C  0.14833483  0.37415087  0.87493774     0.05500
O904        O  0.20990357  0.33975009  0.88093199    -0.57100
H905        H  0.24145023  0.34650384  0.93788782     0.18400
O906        O  0.17198294  0.42200407  0.98701189    -0.63800
H907        H  0.14016824  0.41348127  0.92993980     0.16900
C908        C  0.13298996  0.34407648  0.86627857     0.29100
C909        C  0.11056693  0.34269229  0.83879037    -0.24700
C910        C  0.10314170  0.37101733  0.81937266    -0.24000
C911        C  0.11922128  0.40098522  0.82770418     0.40600
C912        C  0.14143431  0.40232768  0.85528377    -0.26500
O913        O  0.13837930  0.31635521  0.88576656    -0.58400
H914        H  0.09851572  0.31945596  0.83310786     0.16200
O915        O  0.11401160  0.42902144  0.80865980    -0.59800
H916        H  0.15328419  0.42557079  0.86144340     0.14700
H917        H  0.17822950  0.44420638  0.97838733     0.46500
H918        H  0.15128101  0.30131857  0.87096081     0.41900
H919        H  0.09818961  0.44232376  0.82214537     0.45400
H920        H  0.20902392  0.31652294  0.88893315     0.36800
C921        C  0.13612785  0.39517238  0.62297560    -0.27400
C922        C  0.15624430  0.36730408  0.61955360     0.02200
C923        C  0.15408688  0.34160681  0.64358135     0.30300
C924        C  0.13115817  0.34349275  0.67013778    -0.19200
C925        C  0.11011505  0.37088666  0.67307974    -0.28600
C926        C  0.11328176  0.39723783  0.64963459     0.44300
C927        C  0.17714179  0.36434411  0.58897979     0.05500
O928        O  0.17349050  0.31412093  0.64063660    -0.57100
H929        H  0.12928835  0.32304441  0.68799264     0.18400
O930        O  0.09271299  0.42398887  0.65104502    -0.63800
H931        H  0.13753430  0.41496976  0.60427824     0.16900
C932        C  0.16266533  0.35847191  0.55691794     0.29100
C933        C  0.18146534  0.36113994  0.52719788    -0.24700
C934        C  0.21442661  0.37234686  0.52851971    -0.24000
C935        C  0.22997301  0.37286430  0.56136914     0.40600
C936        C  0.21112408  0.36932451  0.59126274    -0.26500
O937        O  0.12991199  0.35050120  0.55441872    -0.58400
H938        H  0.16939489  0.35537403  0.50324194     0.16200
O939        O  0.26307279  0.37909432  0.56447905    -0.59800
H940        H  0.22273220  0.37239346  0.61613586     0.14700
H941        H  0.10570300  0.44154651  0.66257511     0.46500
H942        H  0.11869987  0.37134537  0.54796906     0.41900
H943        H  0.26498808  0.40161569  0.57422886     0.45400
H944        H  0.16112634  0.29903595  0.62524485     0.36800
C945        C  0.75869803  0.74755414  0.51083402    -0.27400
C946        C  0.74791076  0.71367745  0.01027705     0.02200
C947        C  0.71424690  0.70713990  0.01541036     0.30300
C948        C  0.69167149  0.73320204  0.01739855    -0.19200
C949        C  0.70147250  0.76643154  0.01243990    -0.28600
C950        C  0.73519301  0.77257398  0.51066913     0.44300
C951        C  0.77271943  0.68673741  0.00703318     0.05500
O952        O  0.70294586  0.67531924  0.01807961    -0.57100
H953        H  0.66637425  0.72679150  0.02259450     0.18400
O954        O  0.74601647  0.80458856  0.50855506    -0.63800
H955        H  0.78449100  0.75436575  0.51035215     0.16900
C956        C  0.79679493  0.68773034  0.98117484     0.29100
C957        C  0.82213010  0.66442497  0.98056359    -0.24700
C958        C  0.82772390  0.64164650  0.50635542    -0.24000
C959        C  0.80245421  0.63938013  0.53144404     0.40600
C960        C  0.77676990  0.66245845  0.53221267    -0.26500
O961        O  0.79625923  0.71193648  0.95651995    -0.58400
H962        H  0.84114182  0.66829740  0.96175230     0.16200
O963        O  0.80254563  0.61446421  0.55535215    -0.59800
H964        H  0.75823394  0.66034732  0.55199356     0.14700
H965        H  0.75572108  0.80959391  0.53136293     0.46500
H966        H  0.78109010  0.70359148  0.93847739     0.41900
H967        H  0.80883578  0.62508212  0.57733490     0.45400
H968        H  0.69452882  0.66967885  0.99489748     0.36800
C969        C  0.70357407  0.27500057  0.53150791    -0.27400
C970        C  0.72691293  0.27281957  0.99020031     0.02200
C971        C  0.72189596  0.24848511  0.96523727     0.30300
C972        C  0.69819440  0.22386842  0.97028020    -0.19200
C973        C  0.67803566  0.22435399  0.50915428    -0.28600
C974        C  0.68047026  0.24943962  0.53465839     0.44300
C975        C  0.75409348  0.29710058  0.98698471     0.05500
O976        O  0.74009947  0.24855872  0.93564888    -0.57100
H977        H  0.69425189  0.20728316  0.94906605     0.18400
O978        O  0.66025069  0.24916855  0.56279390    -0.63800
H979        H  0.70567843  0.29324292  0.55169371     0.16900
C980        C  0.74807325  0.33100807  0.98306878     0.29100
C981        C  0.77442428  0.35347043  0.98207626    -0.24700
C982        C  0.80743403  0.34288794  0.98590058    -0.24000
C983        C  0.80983823  0.31212085  0.49688606     0.40600
C984        C  0.78375996  0.29001333  0.50044701    -0.26500
O985        O  0.71645308  0.34241860  0.97999822    -0.58400
H986        H  0.76858122  0.37909180  0.97751469     0.16200
O987        O  0.84117753  0.29962193  0.49591698    -0.59800
H988        H  0.78892559  0.26380573  0.50184932     0.14700
H989        H  0.67446605  0.24339622  0.58264075     0.46500
H990        H  0.71289560  0.34566888  0.95500099     0.41900
H991        H  0.84319356  0.28897004  0.47313151     0.45400
H992        H  0.72592215  0.25932821  0.91815280     0.36800
C993        C  0.69875484  0.86639213  0.57263732    -0.27400
C994        C  0.69368489  0.85137844  0.60445975     0.02200
C995        C  0.68763410  0.81739387  0.60600461     0.30300
C996        C  0.68402128  0.79936862  0.57565294    -0.19200
C997        C  0.68470708  0.81492257  0.54301959    -0.28600
C998        C  0.69534242  0.84853460  0.54212103     0.44300
C999        C  0.69188011  0.87223066  0.63533787     0.05500
O1000       O  0.68372326  0.80189230  0.63704193    -0.57100
H1001       H  0.67815176  0.77333715  0.57760938     0.18400
O1002       O  0.70298922  0.86445768  0.51211276    -0.63800
H1003       H  0.70474768  0.89244894  0.57136920     0.16900
C1004       C  0.71991977  0.88814080  0.64853735     0.29100
C1005       C  0.71662815  0.91164650  0.67457727    -0.24700
C1006       C  0.68543997  0.91973669  0.68767087    -0.24000
C1007       C  0.65756202  0.90246588  0.67535512     0.40600
C1008       C  0.66100274  0.87888593  0.64947598    -0.26500
O1009       O  0.75047449  0.88155114  0.63547911    -0.58400
H1010       H  0.73848148  0.92414557  0.68389430     0.16200
O1011       O  0.62682174  0.90833509  0.68835871    -0.59800
H1012       H  0.63927789  0.86660296  0.63948787     0.14700
H1013       H  0.72728202  0.86672737  0.51207421     0.46500
H1014       H  0.75807899  0.86150219  0.64792285     0.41900
H1015       H  0.61652160  0.92425776  0.67222026     0.45400
H1016       H  0.70527290  0.79144025  0.64199149     0.36800
C1017       C  0.65444339  0.86093482  0.94300551    -0.27400
C1018       C  0.67522686  0.85259991  0.91598614     0.02200
C1019       C  0.69587587  0.82507776  0.91921133     0.30300
C1020       C  0.69635644  0.80682549  0.94972487    -0.19200
C1021       C  0.67695008  0.81598717  0.97827644    -0.28600
C1022       C  0.65501882  0.84313817  0.97375179     0.44300
C1023       C  0.67641614  0.87413157  0.88543116     0.05500
O1024       O  0.71561071  0.81565765  0.89251071    -0.57100
H1025       H  0.71159410  0.78506910  0.95016891     0.18400
O1026       O  0.63408937  0.85259267  0.99949339    -0.63800
H1027       H  0.63823451  0.88203639  0.94064281     0.16900
C1028       C  0.64805258  0.88031019  0.86569829     0.29100
C1029       C  0.64901087  0.90369330  0.83927632    -0.24700
C1030       C  0.67812319  0.92119351  0.83205541    -0.24000
C1031       C  0.70675034  0.91422259  0.85139451     0.40600
C1032       C  0.70572122  0.89074249  0.87768992    -0.26500
O1033       O  0.61917924  0.86399676  0.87244708    -0.58400
H1034       H  0.62675140  0.90834135  0.82467297     0.16200
O1035       O  0.73576323  0.93051184  0.84531080    -0.59800
H1036       H  0.72764189  0.88631658  0.89293020     0.14700
H1037       H  0.64120400  0.87505232  0.00646726     0.46500
H1038       H  0.61905596  0.84475097  0.85674853     0.41900
H1039       H  0.73540475  0.94997738  0.86072802     0.45400
H1040       H  0.70117310  0.80248127  0.87717262     0.36800
C1041       C  0.68893448  0.10484757  0.86786877    -0.27400
C1042       C  0.66294626  0.10076499  0.89120702     0.02200
C1043       C  0.63962449  0.07557102  0.88532209     0.30300
C1044       C  0.64230432  0.05528409  0.85654139    -0.19200
C1045       C  0.66862656  0.05884915  0.83363515    -0.28600
C1046       C  0.69208860  0.08391495  0.83946212     0.44300
C1047       C  0.65999797  0.12306896  0.92129280     0.05500
O1048       O  0.61445541  0.07002619  0.90796918    -0.57100
H1049       H  0.62423223  0.03591134  0.85278234     0.18400
O1050       O  0.71750367  0.08888264  0.81697651    -0.63800
H1051       H  0.70676991  0.12444301  0.87157378     0.16900
C1052       C  0.68660885  0.12859840  0.94370624     0.29100
C1053       C  0.68326291  0.15040168  0.97125921    -0.24700
C1054       C  0.65366826  0.16791666  0.97722757    -0.24000
C1055       C  0.62591920  0.15871676  0.95683641     0.40600
C1056       C  0.62980200  0.13804707  0.92843684    -0.26500
O1057       O  0.71607968  0.11284524  0.93898333    -0.58400
H1058       H  0.70448335  0.15465800  0.98758371     0.16200
O1059       O  0.59448933  0.16787204  0.96493504    -0.59800
H1060       H  0.60862777  0.13316492  0.91223570     0.14700
H1061       H  0.73672463  0.07756791  0.82751661     0.46500
H1062       H  0.71317397  0.09067346  0.94939601     0.41900
H1063       H  0.58486114  0.14870163  0.97719164     0.45400
H1064       H  0.62383027  0.05524423  0.92578695     0.36800
C1065       C  0.64692435  0.10620419  0.65632882    -0.27400
C1066       C  0.67196346  0.10773044  0.63170050     0.02200
C1067       C  0.69957506  0.08700000  0.63521662     0.30300
C1068       C  0.70123902  0.06439234  0.66240328    -0.19200
C1069       C  0.67537907  0.06177990  0.68605821    -0.28600
C1070       C  0.64846592  0.08352927  0.68333461     0.44300
C1071       C  0.66803561  0.12988217  0.60166261     0.05500
O1072       O  0.72450519  0.08783310  0.61161163    -0.57100
H1073       H  0.72222772  0.04802986  0.66422874     0.18400
O1074       O  0.62340755  0.08275866  0.70679901    -0.63800
H1075       H  0.62585035  0.12244586  0.65433464     0.16900
C1076       C  0.64005144  0.12752273  0.58063124     0.29100
C1077       C  0.63614197  0.14889083  0.55284081    -0.24700
C1078       C  0.65944477  0.17380384  0.54516453    -0.24000
C1079       C  0.68902244  0.17412550  0.56507462     0.40600
C1080       C  0.69254910  0.15278671  0.59331245    -0.26500
O1081       O  0.61646555  0.10397557  0.58672245    -0.58400
H1082       H  0.61428697  0.14617445  0.53715143     0.16200
O1083       O  0.71591346  0.19248157  0.55554908    -0.59800
H1084       H  0.71490936  0.15385441  0.60851580     0.14700
H1085       H  0.63162930  0.09565224  0.72670979     0.46500
H1086       H  0.62347292  0.08443511  0.57336700     0.41900
H1087       H  0.72131770  0.20680596  0.57541295     0.45400
H1088       H  0.71712753  0.07317993  0.59272986     0.36800
C1089       C  0.38195021  0.72809211  0.51967847    -0.23000
C1090       C  0.36170389  0.72067946  0.99828896     0.02200
C1091       C  0.36042333  0.74327014  0.97108706     0.30300
C1092       C  0.38223281  0.76988806  0.96993161    -0.19200
C1093       C  0.40482779  0.77819224  0.49276372    -0.28600
C1094       C  0.40435482  0.75459681  0.51997115     0.44300
C1095       C  0.33499078  0.69605763  0.00225921     0.05500
O1096       O  0.33677561  0.74031428  0.94605204    -0.57100
H1097       H  0.37771455  0.78769720  0.94992190     0.18400
O1098       O  0.42556271  0.75737858  0.54729265    -0.63800
H1099       H  0.38161376  0.71098142  0.54108427     0.16900
C1100       C  0.33982207  0.66240801  0.99564672     0.29100
C1101       C  0.31303918  0.64042089  0.99646703    -0.24700
C1102       C  0.27691021  0.65665173  0.50009812    -0.24000
C1103       C  0.27317510  0.69134302  0.50430717     0.40600
C1104       C  0.30035071  0.71242731  0.50321018    -0.26500
O1105       O  0.37042874  0.65095845  0.98709044    -0.58400
H1106       H  0.31783579  0.61510222  0.98955760     0.16200
O1107       O  0.24284477  0.70503124  0.50990940    -0.59800
H1108       H  0.29672267  0.73863570  0.50721093     0.14700
H1109       H  0.41188010  0.76510041  0.56670384     0.46500
H1110       H  0.37079761  0.65091938  0.96163429     0.41900
H1111       H  0.23709088  0.71669362  0.48828270     0.45400
H1112       H  0.34724868  0.72718325  0.92763938     0.36800
C1113       C  0.52383489  0.81512161  0.49576362    -0.27400
C1114       C  0.53572451  0.78168781  0.99664705     0.02200
C1115       C  0.51287538  0.75599322  0.99238073     0.30300
C1116       C  0.47914398  0.76329165  0.98957853    -0.19200
C1117       C  0.46761645  0.79622192  0.99195338    -0.28600
C1118       C  0.49070191  0.82336243  0.49253869     0.44300
C1119       C  0.57068610  0.77609606  0.00552555     0.05500
O1120       O  0.52300929  0.72374106  0.99287525    -0.57100
H1121       H  0.46236170  0.74281302  0.98655800     0.18400
O1122       O  0.48265848  0.85620706  0.49215520    -0.63800
H1123       H  0.54193040  0.83478638  0.49705434     0.16900
C1124       C  0.58374742  0.79078246  0.03518971     0.29100
C1125       C  0.61769754  0.79424089  0.03916707    -0.24700
C1126       C  0.63988644  0.78306446  0.01381232    -0.24000
C1127       C  0.62395488  0.76348169  0.48551538     0.40600
C1128       C  0.58950194  0.76144341  0.48226604    -0.26500
O1129       O  0.56320940  0.80380599  0.05956306    -0.58400
H1130       H  0.62549094  0.80889523  0.06071952     0.16200
O1131       O  0.64294516  0.75173684  0.45920966    -0.59800
H1132       H  0.57891507  0.75076595  0.45926301     0.14700
H1133       H  0.48870000  0.86421242  0.46894824     0.46500
H1134       H  0.56447321  0.82809508  0.05655563     0.41900
H1135       H  0.64045864  0.72735585  0.45991840     0.45400
H1136       H  0.52307528  0.71677982  0.96848220     0.36800
C1137       C  0.36243716  0.28409254  0.97190393    -0.27400
C1138       C  0.33916105  0.28369952  0.49325067     0.02200
C1139       C  0.33670177  0.25631713  0.51534909     0.30300
C1140       C  0.36044467  0.23140812  0.51464294    -0.19200
C1141       C  0.38842773  0.23321624  0.49307761    -0.28600
C1142       C  0.38751098  0.26017710  0.97043471     0.44300
C1143       C  0.31317508  0.30971215  0.49258251     0.05500
O1144       O  0.31079419  0.25327124  0.53760662    -0.57100
H1145       H  0.35590629  0.21023081  0.53082568     0.18400
O1146       O  0.41072237  0.26271561  0.94512531    -0.63800
H1147       H  0.36260383  0.30422306  0.95356155     0.16900
C1148       C  0.32091822  0.34351814  0.49518797     0.29100
C1149       C  0.29579205  0.36729633  0.49599674    -0.24700
C1150       C  0.26220764  0.35830620  0.49328280    -0.24000
C1151       C  0.25492659  0.32399938  0.49035836     0.40600
C1152       C  0.28006790  0.30047036  0.49000975    -0.26500
O1153       O  0.35304679  0.35363983  0.49783808    -0.58400
H1154       H  0.30313238  0.39259106  0.50003131     0.16200
O1155       O  0.22295448  0.31306101  0.48883160    -0.59800
H1156       H  0.27348822  0.27464671  0.48761216     0.14700
H1157       H  0.42296208  0.28344065  0.94978679     0.46500
H1158       H  0.35798270  0.35361759  0.52277195     0.41900
H1159       H  0.21559083  0.30016117  0.97586957     0.45400
H1160       H  0.31754512  0.26562861  0.55841406     0.36800
C1161       C  0.57407230  0.24100805  0.98200471    -0.27400
C1162       C  0.55310844  0.23565143  0.51283984     0.02200
C1163       C  0.56633827  0.22334881  0.54355763     0.30300
C1164       C  0.59903963  0.21305407  0.54472108    -0.19200
C1165       C  0.61896971  0.21406919  0.51503207    -0.28600
C1166       C  0.60723180  0.23126891  0.98215010     0.44300
C1167       C  0.51792750  0.23026614  0.50586441     0.05500
O1168       O  0.54644611  0.21760641  0.57130312    -0.57100
H1169       H  0.60792739  0.20298921  0.56869757     0.18400
O1170       O  0.62529206  0.23572303  0.95286486    -0.63800
H1171       H  0.56334741  0.25064464  0.95854636     0.16900
C1172       C  0.49414207  0.25511331  0.50841451     0.29100
C1173       C  0.46068092  0.24723153  0.50401903    -0.24700
C1174       C  0.45050797  0.21470266  0.49569615    -0.24000
C1175       C  0.47515301  0.18999344  0.99134552     0.40600
C1176       C  0.50815932  0.19749692  0.99684258    -0.26500
O1177       O  0.50318643  0.28676294  0.51653921    -0.58400
H1178       H  0.44295414  0.26654389  0.50840660     0.16200
O1179       O  0.46708992  0.15778730  0.98423589    -0.59800
H1180       H  0.52620523  0.17790356  0.99504168     0.14700
H1181       H  0.63347575  0.25877055  0.95412534     0.46500
H1182       H  0.50817190  0.29747511  0.49423716     0.41900
H1183       H  0.47693625  0.15287700  0.96156439     0.45400
H1184       H  0.54283497  0.23960578  0.58173255     0.36800
C1185       C  0.43767791  0.89347923  0.85034929    -0.27400
C1186       C  0.41056831  0.88747059  0.87152964     0.02200
C1187       C  0.38070213  0.90384368  0.86485544     0.30300
C1188       C  0.37843699  0.92638591  0.83766205    -0.19200
C1189       C  0.40583760  0.93318607  0.81691262    -0.28600
C1190       C  0.43554012  0.91604004  0.82322459     0.44300
C1191       C  0.41459762  0.86651413  0.90236879     0.05500
O1192       O  0.35383161  0.89855991  0.88533805    -0.57100
H1193       H  0.35540447  0.93918941  0.83339876     0.18400
O1194       O  0.46293175  0.92161296  0.80359215    -0.63800
H1195       H  0.46093890  0.88139466  0.85552815     0.16900
C1196       C  0.42429626  0.83342185  0.90013896     0.29100
C1197       C  0.42920355  0.81490072  0.93009138    -0.24700
C1198       C  0.42386947  0.82832759  0.96317709    -0.24000
C1199       C  0.41617955  0.86276474  0.96475974     0.40600
C1200       C  0.41110068  0.88089145  0.93460266    -0.26500
O1201       O  0.42818248  0.81870688  0.86876037    -0.58400
H1202       H  0.43670630  0.78938137  0.92752575     0.16200
O1203       O  0.41777819  0.88032881  0.99476659    -0.59800
H1204       H  0.40573362  0.90702868  0.93645412     0.14700
H1205       H  0.46176319  0.90498428  0.78497137     0.46500
H1206       H  0.45225564  0.81860902  0.86466298     0.41900
H1207       H  0.39619946  0.89513653  0.49234720     0.45400
H1208       H  0.34226101  0.87940851  0.87502344     0.36800
C1209       C  0.40251701  0.87817661  0.65026647    -0.27400
C1210       C  0.40470803  0.88885181  0.61604244     0.02200
C1211       C  0.40566036  0.92291362  0.60881698     0.30300
C1212       C  0.40464568  0.94580538  0.63562397    -0.19200
C1213       C  0.40257938  0.93511843  0.66974451    -0.28600
C1214       C  0.40106233  0.90115022  0.67707489     0.44300
C1215       C  0.40883218  0.86464424  0.58803253     0.05500
O1216       O  0.40821289  0.93401468  0.57565305    -0.57100
H1217       H  0.40566423  0.97196294  0.62981122     0.18400
O1218       O  0.39924802  0.89021649  0.71035327    -0.63800
H1219       H  0.40220398  0.85202927  0.65613641     0.16900
C1220       C  0.43863909  0.84779531  0.58442306     0.29100
C1221       C  0.44451321  0.82906377  0.55505559    -0.24700
C1222       C  0.42105619  0.82681267  0.52804812    -0.24000
C1223       C  0.38935095  0.84013813  0.53454120     0.40600
C1224       C  0.38397677  0.85997825  0.56350759    -0.26500
O1225       O  0.46256913  0.85001074  0.60926377    -0.58400
H1226       H  0.46779163  0.81634420  0.55406574     0.16200
O1227       O  0.36435403  0.83650092  0.51110290    -0.59800
H1228       H  0.36050911  0.87224426  0.56651901     0.14700
H1229       H  0.37554589  0.89119765  0.71628011     0.46500
H1230       H  0.47735017  0.86803073  0.60158156     0.41900
H1231       H  0.34985523  0.81913243  0.52080441     0.45400
H1232       H  0.43210659  0.93378525  0.57055765     0.36800
C1233       C  0.42250633  0.09847389  0.86846533    -0.27400
C1234       C  0.39551207  0.11989008  0.87119404     0.02200
C1235       C  0.36904983  0.11652684  0.84803771     0.30300
C1236       C  0.37028820  0.09255250  0.82212680    -0.19200
C1237       C  0.39766779  0.07165668  0.81890987    -0.28600
C1238       C  0.42362225  0.07438831  0.84285414     0.44300
C1239       C  0.39637441  0.14615754  0.89768712     0.05500
O1240       O  0.34285671  0.13778499  0.84928389    -0.57100
H1241       H  0.35005105  0.09081591  0.80403476     0.18400
O1242       O  0.45010026  0.05348701  0.84171300    -0.63800
H1243       H  0.44285908  0.10042504  0.88641625     0.16900
C1244       C  0.37184932  0.14913476  0.92282644     0.29100
C1245       C  0.37636127  0.17103145  0.95029915    -0.24700
C1246       C  0.40639474  0.18814770  0.95496642    -0.24000
C1247       C  0.42818137  0.18908347  0.92639893     0.40600
C1248       C  0.42348262  0.16745608  0.89888162    -0.26500
O1249       O  0.34515999  0.12835145  0.92279292    -0.58400
H1250       H  0.35782854  0.17170792  0.97018285     0.16200
O1251       O  0.45453644  0.21027444  0.92505570    -0.59800
H1252       H  0.44163384  0.16682870  0.87859073     0.14700
H1253       H  0.44324831  0.03365314  0.85487479     0.46500
H1254       H  0.32574218  0.14276021  0.91917354     0.41900
H1255       H  0.44934654  0.22629802  0.90654028     0.45400
H1256       H  0.32365474  0.12400586  0.85585720     0.36800
C1257       C  0.40941388  0.17079216  0.58515431    -0.27400
C1258       C  0.40384120  0.13701968  0.58067834     0.02200
C1259       C  0.40154974  0.12442638  0.54721596     0.30300
C1260       C  0.40426671  0.14556484  0.51882372    -0.19200
C1261       C  0.40906400  0.18003380  0.52273312    -0.28600
C1262       C  0.41261215  0.19200911  0.55693426     0.44300
C1263       C  0.40179690  0.11496760  0.61111116     0.05500
O1264       O  0.39767993  0.09118493  0.54192027    -0.57100
H1265       H  0.40428191  0.13403422  0.49392907     0.18400
O1266       O  0.41856354  0.22482342  0.56309191    -0.63800
H1267       H  0.41151128  0.18085720  0.61081066     0.16900
C1268       C  0.42810117  0.11290070  0.63460108     0.29100
C1269       C  0.42619730  0.09140272  0.66269145    -0.24700
C1270       C  0.39808633  0.07184763  0.66829128    -0.24000
C1271       C  0.37150523  0.07429975  0.64498153     0.40600
C1272       C  0.37353404  0.09571474  0.61668523    -0.26500
O1273       O  0.45646846  0.13058558  0.62932686    -0.58400
H1274       H  0.44707537  0.08982747  0.67999132     0.16200
O1275       O  0.34375464  0.05540927  0.64907523    -0.59800
H1276       H  0.35302839  0.09717871  0.59889475     0.14700
H1277       H  0.44160325  0.22595624  0.57153940     0.46500
H1278       H  0.45575452  0.14892426  0.64613667     0.41900
H1279       H  0.34794503  0.03495907  0.63586704     0.45400
H1280       H  0.42033691  0.08243781  0.53937224     0.36800
loop_ 
_geom_bond_atom_site_label_1 
_geom_bond_atom_site_label_2 
_geom_bond_distance 
_geom_bond_site_symmetry_2 
_ccdc_geom_bond_type 
O1            V9   1.902   1_565  S
O1           C11   1.264       .  A
O2            V9   1.906       .  S
O2           C12   1.266       .  A
O3            V9   1.903       .  S
O3           C13   1.266       .  A
O4            V9   1.906   1_565  S
O4           C14   1.267       .  A
O5           V10   1.892   1_565  S
O5           C14   1.263       .  A
O6           V10   1.889       .  S
O6           C13   1.263       .  A
O7           V10   1.903       .  S
O7           C12   1.266       .  A
O8           V10   1.894   1_565  S
O8           C11   1.264       .  A
V9           V10   2.083       .  T
C11         C573   1.476       .  S
C12         C597   1.485       .  S
C13         C630   1.481       .  S
C14         C549   1.483       .  S
C15         C501   1.568       .  S
C15         C534   1.560       .  S
C15         C621   1.566   1_556  S
C15        C1246   1.563       .  S
C16         C453   1.568       .  S
C16         C582   1.561   1_556  S
C16        C1117   1.563       .  S
C16        C1198   1.570       .  S
O17          V25   1.902       .  S
O17          C27   1.266       .  A
O18          V25   1.905   1_545  S
O18          C28   1.266       .  A
O19          V25   1.904   1_545  S
O19          C29   1.266       .  A
O20          V25   1.896       .  S
O20          C30   1.264       .  A
O21          V26   1.907       .  S
O21          C30   1.267       .  A
O22          V26   1.912   1_545  S
O22          C29   1.268       .  A
O23          V26   1.907   1_545  S
O23          C28   1.266       .  A
O24          V26   1.900       .  S
O24          C27   1.265       .  A
V25          V26   2.083       .  T
C27         C366   1.488       .  S
C28         C405   1.490       .  S
C29         C429   1.493       .  S
C30         C390   1.488       .  S
C31         C333   1.568       .  S
C31         C438   1.571       .  S
C31         C525   1.566       .  S
C31        C1054   1.569   1_554  S
C32         C309   1.560       .  S
C32         C381   1.564       .  S
C32         C486   1.573       .  S
C32         C997   1.566       .  S
O33          V41   1.891   1_655  S
O33          C43   1.262       .  A
O34          V41   1.888       .  S
O34          C44   1.261       .  A
O35          V41   1.906       .  S
O35          C45   1.267       .  A
O36          V41   1.906   1_655  S
O36          C46   1.267       .  A
O37          V42   1.896   1_655  S
O37          C46   1.263       .  A
O38          V42   1.892       .  S
O38          C45   1.263       .  A
O39          V42   1.925       .  S
O39          C44   1.271       .  A
O40          V42   1.922   1_655  S
O40          C43   1.271       .  A
V41          V42   2.083       .  T
C43         C213   1.496       .  S
C44         C270   1.496       .  S
C45         C285   1.485       .  S
C46         C237   1.484       .  S
C47         C198   1.569       .  S
C47         C294   1.563       .  S
C47         C510   1.567   1_554  S
C47         C901   1.571   1_554  S
C48         C174   1.568       .  S
C48         C246   1.564       .  S
C48         C342   1.554       .  S
C48         C862   1.567       .  S
O49          V57   1.887       .  S
O49          C59   1.261       .  A
O50          V57   1.886       .  S
O50          C60   1.261       .  A
O51          V57   1.912       .  S
O51          C61   1.269       .  A
O52          V57   1.913       .  S
O52          C62   1.268       .  A
O53          V58   1.889       .  S
O53          C62   1.262       .  A
O54          V58   1.888       .  S
O54          C61   1.262       .  A
O55          V58   1.897       .  S
O55          C60   1.265       .  A
O56          V58   1.893       .  S
O56          C59   1.265       .  A
V57          V58   2.083       .  T
C59         C102   1.470   1_455  S
C60         C117   1.472       .  S
C61         C141   1.486       .  S
C62          C78   1.481   1_455  S
C63         C150   1.562       .  S
C63         C189   1.569   1_554  S
C63         C462   1.563       .  S
C63         C766   1.558   1_554  S
C64          C93   1.552       .  S
C64         C165   1.559       .  S
C64         C318   1.565       .  S
C64         C709   1.572   1_554  S
C65          C66   1.400       .  A
C65          C70   1.403       .  A
C65          H75   1.084       .  S
C66          C71   1.488       .  S
C66          C67   1.404       .  A
C67          C68   1.397       .  A
C67          O72   1.371       .  S
C68          C69   1.417       .  A
C68          H73   1.084       .  S
C69         C704   1.567       .  S
C69          C70   1.428       .  A
C70          O74   1.371       .  S
C71          C76   1.411       .  A
C71          C80   1.403       .  A
O72          H88   0.993       .  S
O74          H85   0.991       .  S
C76          C77   1.402       .  A
C76          O81   1.371       .  S
C77          C78   1.403       .  A
C77          H82   1.083   1_655  S
C78          C79   1.412       .  A
C79          C80   1.399       .  A
C79          O83   1.372       .  S
C80          H84   1.083       .  S
O81          H86   0.991       .  S
O83          H87   0.993       .  S
C89          C90   1.401       .  A
C89          C94   1.402       .  A
C89          H99   1.084       .  S
C90          C95   1.474       .  S
C90          C91   1.400       .  A
C91          C92   1.392       .  A
C91          O96   1.375       .  S
C92          C93   1.415       .  A
C92          H97   1.080       .  S
C93          C94   1.421       .  A
C94          O98   1.375       .  S
C95         C100   1.410       .  A
C95         C104   1.401       .  A
O96         H112   0.992       .  S
O98         H109   0.992       .  S
C100        C101   1.391       .  A
C100        O105   1.372       .  S
C101        C102   1.401       .  A
C101        H106   1.084       .  S
C102        C103   1.412       .  A
C103        C104   1.398       .  A
C103        O107   1.372       .  S
C104        H108   1.084       .  S
O105        H110   0.991       .  S
O107        H111   0.991       .  S
C113        C114   1.396       .  A
C113        C118   1.396       .  A
C113        H123   1.084       .  S
C114        C119   1.463       .  S
C114        C115   1.405       .  A
C115        C116   1.394       .  A
C115        O120   1.372       .  S
C116        C117   1.403       .  A
C116        H121   1.084       .  S
C117        C118   1.414       .  A
C118        O122   1.372       .  S
C119        C124   1.397       .  A
C119        C128   1.394       .  A
O120        H136   0.992       .  S
O122        H133   0.992       .  S
C124        C125   1.394       .  A
C124        O129   1.371       .  S
C125        C126   1.417       .  A
C125        H130   1.083       .  S
C126        C703   1.558       .  S
C126        C127   1.427       .  A
C127        C128   1.400       .  A
C127        O131   1.374       .  S
C128        H132   1.084       .  S
O129        H134   0.992       .  S
O131        H775   0.994       .  S
H135        O771   0.992       .  S
C137        C138   1.398       .  A
C137        C142   1.398       .  A
C137        H147   1.084       .  S
C138        C143   1.478       .  S
C138        C139   1.407       .  A
C139        C140   1.404       .  A
C139        O144   1.372       .  S
C140        C141   1.406       .  A
C140        H145   1.083       .  S
C141        C142   1.416       .  A
C142        O146   1.372       .  S
C143        C148   1.402       .  A
C143        C152   1.396       .  A
O144        H160   0.992       .  S
O146        H157   0.992       .  S
C148        C149   1.402       .  A
C148        O153   1.372       .  S
C149        C150   1.416       .  A
C149        H154   1.079       .  S
C150        C151   1.426       .  A
C151        C152   1.399       .  A
C151        O155   1.371       .  S
C152        H156   1.084       .  S
O153        H158   0.992       .  S
O155        H159   0.992       .  S
C161        C166   1.391       .  A
C161        C802   1.393   1_554  A
C161        H171   1.085       .  S
C162        C167   1.472       .  S
C162        C163   1.400       .  A
C162        C801   1.394       .  A
C163        C164   1.403       .  A
C163        O168   1.371       .  S
C164        C805   1.418       .  A
C164        H169   1.080       .  S
C165        C166   1.423       .  A
C165        C804   1.418   1_554  A
C166        O170   1.371       .  S
C167        C172   1.395       .  A
C167        C816   1.398       .  A
O168        H184   0.992       .  S
O170        H181   0.993   1_554  S
C172        C173   1.391       .  A
C172        O177   1.372       .  S
C173        C174   1.421       .  A
C173        H178   1.074       .  S
C174        C815   1.426       .  A
C175        C176   1.406       .  A
C175        C814   1.425   1_554  A
C175        O179   1.373       .  S
C176        C807   1.398   1_554  A
C176        H180   1.084       .  S
O177        H182   0.993       .  S
O179        H183   0.992       .  S
C185        C190   1.405       .  A
C185        C826   1.402   1_554  A
C185        H195   1.084       .  S
C186        C191   1.486       .  S
C186        C187   1.400       .  A
C186        C825   1.404       .  A
C187        C188   1.397       .  A
C187        O192   1.372       .  S
C188        C829   1.423       .  A
C188        H193   1.078       .  S
C189        C190   1.421   1_556  A
C189        C828   1.422       .  A
C190        O194   1.372       .  S
C191        C196   1.405       .  A
C191        C840   1.392       .  A
O192        H208   0.992       .  S
O194        H205   0.992       .  S
C196        C197   1.406       .  A
C196        O201   1.371       .  S
C197        C838   1.418       .  A
C197        H202   1.083       .  S
C198        C199   1.432       .  A
C198        C837   1.419   1_554  A
C199        C200   1.399       .  A
C199        O203   1.372       .  S
C200        C831   1.394   1_554  A
C200        H204   1.085       .  S
O201        H206   0.992       .  S
O203        H207   0.992       .  S
C209        C210   1.401       .  A
C209        C214   1.402       .  A
C209        H219   1.084       .  S
C210        C215   1.491       .  S
C210        C211   1.409       .  A
C211        C212   1.408       .  A
C211        O216   1.372       .  S
C212        C213   1.407       .  A
C212        H217   1.083       .  S
C213        C214   1.418       .  A
C214        O218   1.372       .  S
C215        C220   1.405       .  A
C215        C224   1.399       .  A
O216        H232   0.992       .  S
O218        H229   0.991       .  S
C220        C221   1.406       .  A
C220        O225   1.372       .  S
C221        C222   1.418       .  A
C221        H226   1.080       .  S
C222        C688   1.571   1_554  S
C222        C223   1.427       .  A
C223        C224   1.404       .  A
C223        O227   1.374   1_554  S
C224        H228   1.084       .  S
O225        H230   0.991       .  S
O227        H231   0.992       .  S
C233        C234   1.401       .  A
C233        C238   1.399       .  A
C233        H243   1.084       .  S
C234        C239   1.473       .  S
C234        C235   1.403       .  A
C235        C236   1.401       .  A
C235        O240   1.372       .  S
C236        C237   1.410       .  A
C236        H241   1.083       .  S
C237        C238   1.411       .  A
C238        O242   1.371       .  S
C239        C244   1.399       .  A
C239        C248   1.399       .  A
O240        H256   0.992       .  S
O242        H253   0.991       .  S
C244        C245   1.392       .  A
C244        O249   1.372       .  S
C245        C246   1.414       .  A
C245        H250   1.079       .  S
C246        C247   1.425       .  A
C247        C248   1.404       .  A
C247        O251   1.372       .  S
C248        H252   1.083       .  S
O249        H254   0.992       .  S
O251        H255   0.992       .  S
C257        C258   1.402       .  A
C257        C262   1.400       .  A
C257        H267   1.084       .  S
C258        C263   1.494       .  S
C258        C259   1.406       .  A
C259        C260   1.406       .  A
C259        O264   1.373       .  S
C260        C261   1.418       .  A
C260        H265   1.081       .  S
C261        C687   1.569       .  S
C261        C262   1.422       .  A
C262        O266   1.371       .  S
C263        C268   1.413       .  A
C263        C272   1.401       .  A
O264        H280   0.992       .  S
O266        H277   0.992       .  S
C268        C269   1.410       .  A
C268        O273   1.372       .  S
C269        C270   1.407       .  A
C269        H274   1.083       .  S
C270        C271   1.417       .  A
C271        C272   1.398       .  A
C271        O275   1.371       .  S
C272        H276   1.084       .  S
O273        H278   0.992       .  S
O275        H279   0.993       .  S
C281        C282   1.402       .  A
C281        C286   1.402       .  A
C281        H291   1.084       .  S
C282        C287   1.477       .  S
C282        C283   1.404       .  A
C283        C284   1.400       .  A
C283        O288   1.372       .  S
C284        C285   1.408       .  A
C284        H289   1.083       .  S
C285        C286   1.412       .  A
C286        O290   1.371       .  S
C287        C292   1.401       .  A
C287        C296   1.398       .  A
O288        H304   0.992       .  S
O290        H301   0.992       .  S
C292        C293   1.397       .  A
C292        O297   1.372       .  S
C293        C294   1.416       .  A
C293        H298   1.078       .  S
C294        C295   1.426       .  A
C295        C296   1.405       .  A
C295        O299   1.373       .  S
C296        H300   1.084       .  S
O297        H302   0.992       .  S
O299        H303   0.992       .  S
C305        C310   1.399       .  A
C305        C946   1.402       .  A
C305        H315   1.083       .  S
C306        C311   1.489       .  S
C306        C307   1.408       .  A
C306        C945   1.398       .  A
C307        C308   1.404       .  A
C307        O312   1.371       .  S
C308        C309   1.415       .  A
C308        H313   1.079       .  S
C309        C950   1.423       .  A
C310        C949   1.420       .  A
C310        O314   1.371       .  S
C311        C316   1.406       .  A
C311        C960   1.401       .  A
O312        H328   0.993       .  S
O314        H325   0.992       .  S
C316        C317   1.394       .  A
C316        O321   1.372       .  S
C317        C958   1.416       .  A
C317        H322   1.078       .  S
C318        C319   1.426       .  A
C318        C957   1.415   1_554  A
C319        C320   1.403       .  A
C319        O323   1.372       .  S
C320        C951   1.400       .  A
C320        H324   1.083       .  S
O321        H326   0.991       .  S
O323        H327   0.992       .  S
C329        C334   1.406       .  A
C329        C970   1.399   1_554  A
C329        H339   1.083       .  S
C330        C335   1.477       .  S
C330        C331   1.402       .  A
C330        C969   1.397       .  A
C331        C332   1.395       .  A
C331        O336   1.372       .  S
C332        C973   1.414       .  A
C332        H337   1.078       .  S
C333        C334   1.423       .  A
C333        C972   1.422   1_554  A
C334        O338   1.373       .  S
C335        C340   1.404       .  A
C335        C984   1.395       .  A
O336        H352   0.992       .  S
O338        H349   0.991       .  S
C340        C341   1.403       .  A
C340        O345   1.372       .  S
C341        C342   1.416       .  A
C341        H346   1.080       .  S
C342        C983   1.423       .  A
C343        C344   1.400       .  A
C343        C982   1.423       .  A
C343        O347   1.372       .  S
C344        C975   1.397       .  A
C344        H348   1.084       .  S
O345        H350   0.992       .  S
O347        H351   0.992       .  S
C353        C354   1.395       .  A
C353        C358   1.400       .  A
C353        H363   1.084       .  S
C354        C359   1.478       .  S
C354        C355   1.402       .  A
C355        C356   1.401       .  A
C355        O360   1.371       .  S
C356        C357   1.417       .  A
C356        H361   1.083       .  S
C357        C672   1.567       .  S
C357        C358   1.430       .  A
C358        O362   1.371       .  S
C359        C364   1.404       .  A
C359        C368   1.401       .  A
O360        H376   0.992       .  S
O362        H373   0.992       .  S
C364        C365   1.401       .  A
C364        O369   1.371       .  S
C365        C366   1.409       .  A
C365        H370   1.083       .  S
C366        C367   1.414       .  A
C367        C368   1.401       .  A
C367        O371   1.371       .  S
C368        H372   1.084       .  S
O369        H374   0.992       .  S
O371        H375   0.992       .  S
C377        C378   1.399       .  A
C377        C382   1.398       .  A
C377        H387   1.083       .  S
C378        C383   1.487       .  S
C378        C379   1.405       .  A
C379        C380   1.402       .  A
C379        O384   1.372       .  S
C380        C381   1.419       .  A
C380        H385   1.079       .  S
C381        C382   1.424       .  A
C382        O386   1.374       .  S
C383        C388   1.409       .  A
C383        C392   1.404       .  A
O384        H400   0.992       .  S
O386        H397   0.991       .  S
C388        C389   1.398       .  A
C388        O393   1.372       .  S
C389        C390   1.407       .  A
C389        H394   1.083       .  S
C390        C391   1.413       .  A
C391        C392   1.403       .  A
C391        O395   1.371       .  S
C392        H396   1.083       .  S
O393        H398   0.991       .  S
O395        H399   0.992       .  S
C401        C402   1.407       .  A
C401        C406   1.405       .  A
C401        H411   1.083       .  S
C402        C407   1.499       .  S
C402        C403   1.414       .  A
C403        C404   1.402       .  A
C403        O408   1.372       .  S
C404        C405   1.405       .  A
C404        H409   1.084       .  S
C405        C406   1.411       .  A
C406        O410   1.371       .  S
C407        C412   1.409       .  A
C407        C416   1.402       .  A
O408        H424   0.992       .  S
O410        H421   0.992       .  S
C412        C413   1.402       .  A
C412        O417   1.371       .  S
C413        C414   1.417       .  A
C413        H418   1.083       .  S
C414        C671   1.573       .  S
C414        C415   1.428       .  A
C415        C416   1.402       .  A
C415        O419   1.370       .  S
C416        H420   1.083       .  S
O417        H422   0.991       .  S
O419        H423   0.992       .  S
C425        C426   1.407       .  A
C425        C430   1.404       .  A
C425        H435   1.083       .  S
C426        C431   1.499       .  S
C426        C427   1.412       .  A
C427        C428   1.406       .  A
C427        O432   1.371       .  S
C428        C429   1.407       .  A
C428        H433   1.083       .  S
C429        C430   1.412       .  A
C430        O434   1.371       .  S
C431        C436   1.406       .  A
C431        C440   1.405       .  A
O432        H448   0.992       .  S
O434        H445   0.993       .  S
C436        C437   1.399       .  A
C436        O441   1.372       .  S
C437        C438   1.418       .  A
C437        H442   1.082       .  S
C438        C439   1.425       .  A
C439        C440   1.412       .  A
C439        O443   1.372       .  S
C440        H444   1.083       .  S
O441        H446   0.992       .  S
O443        H447   0.993       .  S
C449        C454   1.407       .  A
C449       C1090   1.399   1_554  A
C449        H459   1.084       .  S
C450        C455   1.481       .  S
C450        C451   1.400       .  A
C450       C1089   1.398       .  A
C451        C452   1.396       .  A
C451        O456   1.372       .  S
C452       C1093   1.420       .  A
C452        H457   1.077       .  S
C453        C454   1.427   1_556  A
C453       C1092   1.418       .  A
C454        O458   1.372       .  S
C455        C460   1.404       .  A
C455       C1104   1.395       .  A
O456        H472   0.992       .  S
O458        H469   0.992       .  S
C460        C461   1.407       .  A
C460        O465   1.371       .  S
C461       C1102   1.419       .  A
C461        H466   1.080       .  S
C462        C463   1.424       .  A
C462       C1101   1.419   1_554  A
C463        C464   1.397       .  A
C463        O467   1.371       .  S
C464       C1095   1.396       .  A
C464        H468   1.084       .  S
O465        H470   0.993       .  S
O467        H471   0.994   1_554  S
C473        C478   1.390       .  A
C473       C1114   1.395       .  A
C473        H483   1.084       .  S
C474        C479   1.483       .  S
C474        C475   1.404       .  A
C474       C1113   1.396       .  A
C475        C476   1.407       .  A
C475        O480   1.371       .  S
C476        C477   1.419       .  A
C476        H481   1.079       .  S
C477        C656   1.565       .  S
C477       C1118   1.424       .  A
C478       C1117   1.424       .  A
C478        O482   1.371       .  S
C479        C484   1.401       .  A
C479       C1128   1.399       .  A
O480        H496   0.992       .  S
O482        H493   0.992       .  S
C484        C485   1.395       .  A
C484        O489   1.374       .  S
C485        C486   1.420       .  A
C485        H490   1.075       .  S
C486       C1127   1.427       .  A
C487        C488   1.404       .  A
C487       C1126   1.428   1_556  A
C487        O491   1.373       .  S
C488       C1119   1.396   1_556  A
C488        H492   1.083       .  S
O489        H494   0.993       .  S
O491        H495   0.992       .  S
C497        C502   1.407       .  A
C497       C1138   1.401       .  A
C497        H507   1.083       .  S
C498        C503   1.493       .  S
C498        C499   1.403   1_556  A
C498       C1137   1.404       .  A
C499        C500   1.396       .  A
C499        O504   1.372       .  S
C500        C501   1.421   1_554  A
C500        H505   1.079       .  S
C501       C1142   1.420       .  A
C502       C1141   1.422       .  A
C502        O506   1.371       .  S
C503        C508   1.405       .  A
C503        C512   1.402       .  A
O504        H520   0.992       .  S
O506        H517   0.994       .  S
C508        C509   1.402   1_556  A
C508        O513   1.372   1_556  S
C509        C510   1.418   1_554  A
C509        H514   1.078       .  S
C510        C511   1.424       .  A
C511        C512   1.402       .  A
C511        O515   1.373       .  S
C512        H516   1.083       .  S
O513        H518   0.991       .  S
O515       H1159   0.992       .  S
H519       O1155   0.993       .  S
C521        C526   1.402       .  A
C521       C1162   1.398       .  A
C521        H531   1.084       .  S
C522        C527   1.478       .  S
C522        C523   1.402       .  A
C522       C1161   1.400   1_554  A
C523        C524   1.398       .  A
C523        O528   1.372       .  S
C524        C525   1.418       .  A
C524        H529   1.080       .  S
C525       C1166   1.423   1_554  A
C526       C1165   1.423       .  A
C526        O530   1.371       .  S
C527        C532   1.405       .  A
C527       C1176   1.392   1_554  A
O528        H544   0.991       .  S
O530        H541   0.992       .  S
C532        C533   1.411       .  A
C532        O537   1.371       .  S
C533        C534   1.418   1_554  A
C533        H538   1.080       .  S
C534       C1175   1.427       .  A
C535        C536   1.389       .  A
C535       C1174   1.425       .  A
C535        O539   1.374       .  S
C536       C1167   1.393       .  A
C536        H540   1.085       .  S
O537        H542   0.991   1_554  S
O539        H543   0.992       .  S
C545        C546   1.402       .  A
C545        C550   1.400       .  A
C545        H555   1.083       .  S
C546        C551   1.483       .  S
C546        C547   1.409       .  A
C547        C548   1.400       .  A
C547        O552   1.371       .  S
C548        C549   1.404       .  A
C548        H553   1.083       .  S
C549        C550   1.414       .  A
C550        O554   1.372       .  S
C551        C556   1.402       .  A
C551        C560   1.397       .  A
O552        H568   0.991       .  S
O554        H565   0.992       .  S
C556        C557   1.401       .  A
C556        O561   1.372       .  S
C557        C558   1.419       .  A
C557        H562   1.084       .  S
C558        C656   1.572       .  S
C558        C559   1.429       .  A
C559        C560   1.402       .  A
C559        O563   1.372       .  S
C560        H564   1.084       .  S
O561        H566   0.992       .  S
O563       H1207   0.993       .  S
H567       O1203   0.994       .  S
C569        C570   1.404       .  A
C569        C574   1.402       .  A
C569        H579   1.083       .  S
C570        C575   1.483       .  S
C570        C571   1.410       .  A
C571        C572   1.398       .  A
C571        O576   1.374       .  S
C572        C573   1.402       .  A
C572        H577   1.084       .  S
C573        C574   1.410       .  A
C574        O578   1.371       .  S
C575        C580   1.404       .  A
C575        C584   1.402       .  A
O576        H592   0.992       .  S
O578        H589   0.992       .  S
C580        C581   1.397       .  A
C580        O585   1.374       .  S
C581        C582   1.416       .  A
C581        H586   1.079       .  S
C582        C583   1.421       .  A
C583        C584   1.403       .  A
C583        O587   1.371       .  S
C584        H588   1.083       .  S
O585        H590   0.992       .  S
O587        H591   0.994       .  S
C593        C594   1.405       .  A
C593        C598   1.401       .  A
C593        H603   1.084       .  S
C594        C599   1.486       .  S
C594        C595   1.407       .  A
C595        C596   1.406       .  A
C595        O600   1.372       .  S
C596        C597   1.406       .  A
C596        H601   1.083       .  S
C597        C598   1.411       .  A
C598        O602   1.372       .  S
C599        C604   1.406       .  A
C599        C608   1.396       .  A
O600        H616   0.992       .  S
O602        H613   0.992       .  S
C604        C605   1.406       .  A
C604        O609   1.371       .  S
C605        C606   1.414       .  A
C605        H610   1.083       .  S
C606        C655   1.568       .  S
C606        C607   1.429       .  A
C607        C608   1.400       .  A
C607        O611   1.373       .  S
C608        H612   1.084       .  S
O609        H614   0.992       .  S
O611        H615   0.991       .  S
C617        C618   1.395       .  A
C617        C622   1.396       .  A
C617        H627   1.084       .  S
C618        C623   1.471       .  S
C618        C619   1.400       .  A
C619        C620   1.397       .  A
C619        O624   1.372       .  S
C620        C621   1.419       .  A
C620        H625   1.078   1_554  S
C621        C622   1.425       .  A
C622        O626   1.372       .  S
C623        C628   1.402       .  A
C623        C632   1.401       .  A
O624        H640   0.991       .  S
O626        H637   0.993       .  S
C628        C629   1.395       .  A
C628        O633   1.372       .  S
C629        C630   1.407       .  A
C629        H634   1.083       .  S
C630        C631   1.414       .  A
C631        C632   1.401       .  A
C631        O635   1.371       .  S
C632        H636   1.084       .  S
O633        H638   0.992       .  S
O635        H639   0.992       .  S
O641        V649   1.898   1_565  S
O641        C651   1.262       .  A
O642        V649   1.900       .  S
O642        C652   1.264       .  A
O643        V649   1.911       .  S
O643        C653   1.267       .  A
O644        V649   1.908   1_565  S
O644        C654   1.268       .  A
O645        V650   1.891   1_565  S
O645        C654   1.262       .  A
O646        V650   1.893       .  S
O646        C653   1.264       .  A
O647        V650   1.902       .  S
O647        C652   1.266       .  A
O648        V650   1.902   1_565  S
O648        C651   1.264       .  A
V649        V650   2.085       .  T
C651       C1213   1.467       .  S
C652       C1237   1.481       .  S
C653       C1270   1.486       .  S
C654       C1189   1.483       .  S
C655       C1141   1.567       .  S
C655       C1174   1.556       .  S
C655       C1261   1.572       .  S
C656       C1093   1.572       .  S
C656       C1222   1.565       .  S
O657        V665   1.897       .  S
O657        C667   1.265       .  A
O658        V665   1.896   1_545  S
O658        C668   1.264       .  A
O659        V665   1.896   1_545  S
O659        C669   1.264       .  A
O660        V665   1.894       .  S
O660        C670   1.264       .  A
O661        V666   1.897       .  S
O661        C670   1.265       .  A
O662        V666   1.900   1_545  S
O662        C669   1.264       .  A
O663        V666   1.902   1_545  S
O663        C668   1.265       .  A
O664        V666   1.900       .  S
O664        C667   1.265       .  A
V665        V666   2.084       .  T
C667       C1006   1.484       .  S
C668       C1045   1.478       .  S
C669       C1069   1.476       .  S
C670       C1030   1.480       .  S
C671        C973   1.556       .  S
C671       C1078   1.562       .  S
C671       C1165   1.559       .  S
C672        C949   1.562       .  S
C672       C1021   1.561   1_554  S
C672       C1126   1.568       .  S
O673        V681   1.890       .  S
O673        C683   1.262   1_455  A
O674        V681   1.894       .  S
O674        C684   1.263       .  A
O675        V681   1.904       .  S
O675        C685   1.266       .  A
O676        V681   1.905       .  S
O676        C686   1.267   1_455  A
O677        V682   1.889       .  S
O677        C686   1.262   1_455  A
O678        V682   1.888       .  S
O678        C685   1.262       .  A
O679        V682   1.913       .  S
O679        C684   1.269       .  A
O680        V682   1.912       .  S
O680        C683   1.268   1_455  A
V681        V682   2.084       .  T
C683        C853   1.488       .  S
C684        C910   1.490       .  S
C685        C925   1.477       .  S
C686        C877   1.483       .  S
C687        C838   1.574       .  S
C687        C934   1.559       .  S
C687       C1150   1.566       .  S
C688        C814   1.566       .  S
C688        C886   1.560       .  S
C688        C982   1.561       .  S
O689        V697   1.891       .  S
O689        C699   1.262       .  A
O690        V697   1.891       .  S
O690        C700   1.263       .  A
O691        V697   1.915       .  S
O691        C701   1.268       .  A
O692        V697   1.911       .  S
O692        C702   1.268       .  A
O693        V698   1.893       .  S
O693        C702   1.263       .  A
O694        V698   1.890       .  S
O694        C701   1.263       .  A
O695        V698   1.895       .  S
O695        C700   1.264       .  A
O696        V698   1.893       .  S
O696        C699   1.264       .  A
V697        V698   2.084       .  T
C699        C742   1.467   1_455  S
C700        C757   1.477       .  S
C701        C781   1.489       .  S
C702        C718   1.487   1_455  S
C703        C790   1.563       .  S
C703        C829   1.574       .  S
C703       C1102   1.563       .  S
C704        C733   1.558       .  S
C704        C805   1.561       .  S
C704        C958   1.563       .  S
C705        C706   1.395       .  A
C705        C710   1.403       .  A
C705        H715   1.084       .  S
C706        C711   1.482       .  S
C706        C707   1.402       .  A
C707        C708   1.401       .  A
C707        O712   1.371       .  S
C708        C709   1.418       .  A
C708        H713   1.083       .  S
C709        C710   1.432       .  A
C710        O714   1.373   1_556  S
C711        C716   1.408       .  A
C711        C720   1.400       .  A
O712        H728   0.992       .  S
O714        H725   0.992       .  S
C716        C717   1.402       .  A
C716        O721   1.371       .  S
C717        C718   1.406       .  A
C717        H722   1.083       .  S
C718        C719   1.415       .  A
C719        C720   1.401       .  A
C719        O723   1.372       .  S
C720        H724   1.084       .  S
O721        H726   0.992       .  S
O723        H727   0.992       .  S
C729        C730   1.400       .  A
C729        C734   1.403       .  A
C729        H739   1.084       .  S
C730        C735   1.473       .  S
C730        C731   1.399       .  A
C731        C732   1.392       .  A
C731        O736   1.374       .  S
C732        C733   1.417       .  A
C732        H737   1.079       .  S
C733        C734   1.423       .  A
C734        O738   1.373       .  S
C735        C740   1.409       .  A
C735        C744   1.401       .  A
O736        H752   0.992       .  S
O738        H749   0.992       .  S
C740        C741   1.393       .  A
C740        O745   1.372       .  S
C741        C742   1.400       .  A
C741        H746   1.084   1_655  S
C742        C743   1.410       .  A
C743        C744   1.400       .  A
C743        O747   1.372       .  S
C744        H748   1.084       .  S
O745        H750   0.992       .  S
O747        H751   0.991       .  S
C753        C754   1.399       .  A
C753        C758   1.396       .  A
C753        H763   1.084       .  S
C754        C759   1.470       .  S
C754        C755   1.406       .  A
C755        C756   1.397       .  A
C755        O760   1.373       .  S
C756        C757   1.406       .  A
C756        H761   1.083       .  S
C757        C758   1.413       .  A
C758        O762   1.371       .  S
C759        C764   1.401       .  A
C759        C768   1.396       .  A
O760        H776   0.992       .  S
O762        H773   0.991       .  S
C764        C765   1.396       .  A
C764        O769   1.371       .  S
C765        C766   1.417       .  A
C765        H770   1.083       .  S
C766        C767   1.426       .  A
C767        C768   1.398       .  A
C767        O771   1.374   1_556  S
C768        H772   1.084       .  S
O769        H774   0.991       .  S
C777        C778   1.397       .  A
C777        C782   1.396       .  A
C777        H787   1.084       .  S
C778        C783   1.480       .  S
C778        C779   1.408       .  A
C779        C780   1.407       .  A
C779        O784   1.372       .  S
C780        C781   1.409       .  A
C780        H785   1.083       .  S
C781        C782   1.415       .  A
C782        O786   1.371       .  S
C783        C788   1.402       .  A
C783        C792   1.397       .  A
O784        H800   0.991       .  S
O786        H797   0.991       .  S
C788        C789   1.403       .  A
C788        O793   1.372       .  S
C789        C790   1.418       .  A
C789        H794   1.079       .  S
C790        C791   1.423       .  A
C791        C792   1.399       .  A
C791        O795   1.371       .  S
C792        H796   1.084       .  S
O793        H798   0.992       .  S
O795        H799   0.993       .  S
C801        C806   1.393       .  A
C801        H811   1.085       .  S
C802        C807   1.473       .  S
C802        C803   1.402       .  A
C803        C804   1.405       .  A
C803        O808   1.371       .  S
C804        H809   1.080       .  S
C805        C806   1.424       .  A
C806        O810   1.371       .  S
C807        C812   1.398       .  A
O808        H824   0.992       .  S
O810        H821   0.991       .  S
C812        C813   1.391       .  A
C812        O817   1.373       .  S
C813        C814   1.420       .  A
C813        H818   1.077       .  S
C815        C816   1.405       .  A
C815        O819   1.373       .  S
C816        H820   1.084       .  S
O817        H822   0.992       .  S
O819        H823   0.991       .  S
C825        C830   1.408       .  A
C825        H835   1.083       .  S
C826        C831   1.481       .  S
C826        C827   1.399       .  A
C827        C828   1.394       .  A
C827        O832   1.373       .  S
C828        H833   1.077       .  S
C829        C830   1.421       .  A
C830        O834   1.372       .  S
C831        C836   1.403       .  A
O832        H848   0.992       .  S
O834        H845   0.992       .  S
C836        C837   1.401       .  A
C836        O841   1.372       .  S
C837        H842   1.083       .  S
C838        C839   1.435       .  A
C839        C840   1.400       .  A
C839        O843   1.372       .  S
C840        H844   1.085       .  S
O841        H846   0.991       .  S
O843        H847   0.992       .  S
C849        C850   1.402       .  A
C849        C854   1.398       .  A
C849        H859   1.084       .  S
C850        C855   1.487       .  S
C850        C851   1.410       .  A
C851        C852   1.405       .  A
C851        O856   1.373       .  S
C852        C853   1.406       .  A
C852        H857   1.083       .  S
C853        C854   1.415       .  A
C854        O858   1.372       .  S
C855        C860   1.404       .  A
C855        C864   1.401       .  A
O856        H872   0.992       .  S
O858        H869   0.992       .  S
C860        C861   1.401       .  A
C860        O865   1.373       .  S
C861        C862   1.418       .  A
C861        H866   1.079       .  S
C862        C863   1.423       .  A
C863        C864   1.401       .  A
C863        O867   1.374       .  S
C864        H868   1.084       .  S
O865        H870   0.992       .  S
O867        H871   0.992       .  S
C873        C874   1.401       .  A
C873        C878   1.399       .  A
C873        H883   1.084       .  S
C874        C879   1.472       .  S
C874        C875   1.402       .  A
C875        C876   1.399       .  A
C875        O880   1.372       .  S
C876        C877   1.410       .  A
C876        H881   1.083       .  S
C877        C878   1.411       .  A
C878        O882   1.371       .  S
C879        C884   1.401       .  A
C879        C888   1.396       .  A
O880        H896   0.992       .  S
O882        H893   0.992       .  S
C884        C885   1.396       .  A
C884        O889   1.372       .  S
C885        C886   1.414       .  A
C885        H890   1.080       .  S
C886        C887   1.424       .  A
C887        C888   1.400       .  A
C887        O891   1.372       .  S
C888        H892   1.084       .  S
O889        H894   0.992       .  S
O891        H895   0.991       .  S
C897        C898   1.400       .  A
C897        C902   1.402       .  A
C897        H907   1.084       .  S
C898        C903   1.487       .  S
C898        C899   1.403       .  A
C899        C900   1.403       .  A
C899        O904   1.373       .  S
C900        C901   1.419       .  A
C900        H905   1.079       .  S
C901        C902   1.425       .  A
C902        O906   1.372       .  S
C903        C908   1.409       .  A
C903        C912   1.402       .  A
O904        H920   0.991       .  S
O906        H917   0.992       .  S
C908        C909   1.405       .  A
C908        O913   1.372       .  S
C909        C910   1.406       .  A
C909        H914   1.083       .  S
C910        C911   1.415       .  A
C911        C912   1.402       .  A
C911        O915   1.372       .  S
C912        H916   1.084       .  S
O913        H918   0.992       .  S
O915        H919   0.993       .  S
C921        C922   1.402       .  A
C921        C926   1.399       .  A
C921        H931   1.084       .  S
C922        C927   1.471       .  S
C922        C923   1.402       .  A
C923        C924   1.398       .  A
C923        O928   1.371       .  S
C924        C925   1.408       .  A
C924        H929   1.083       .  S
C925        C926   1.410       .  A
C926        O930   1.372       .  S
C927        C932   1.399       .  A
C927        C936   1.398       .  A
O928        H944   0.992       .  S
O930        H941   0.992       .  S
C932        C933   1.394       .  A
C932        O937   1.372       .  S
C933        C934   1.414       .  A
C933        H938   1.079       .  S
C934        C935   1.425       .  A
C935        C936   1.404       .  A
C935        O939   1.373       .  S
C936        H940   1.084       .  S
O937        H942   0.992       .  S
O939        H943   0.992       .  S
C945        C950   1.394       .  A
C945        H955   1.084       .  S
C946        C951   1.494       .  S
C946        C947   1.408       .  A
C947        C948   1.403       .  A
C947        O952   1.372       .  S
C948        C949   1.416       .  A
C948        H953   1.080       .  S
C950        O954   1.371       .  S
C951        C956   1.408   1_554  A
O952        H968   0.992   1_554  S
O954        H965   0.992       .  S
C956        C957   1.399       .  A
C956        O961   1.372       .  S
C957        H962   1.078       .  S
C958        C959   1.424       .  A
C959        C960   1.403       .  A
C959        O963   1.372       .  S
C960        H964   1.083       .  S
O961        H966   0.993       .  S
O963        H967   0.992       .  S
C969        C974   1.402       .  A
C969        H979   1.084       .  S
C970        C975   1.483       .  S
C970        C971   1.401       .  A
C971        C972   1.399       .  A
C971        O976   1.373       .  S
C972        H977   1.078       .  S
C973        C974   1.426       .  A
C974        O978   1.373       .  S
C975        C980   1.404       .  A
O976        H992   0.992       .  S
O978        H989   0.991       .  S
C980        C981   1.405       .  A
C980        O985   1.371       .  S
C981        C982   1.417       .  A
C981        H986   1.080       .  S
C983        C984   1.393       .  A
C983        O987   1.372       .  S
C984        H988   1.084       .  S
O985        H990   0.993       .  S
O987        H991   0.992       .  S
C993        C994   1.396       .  A
C993        C998   1.400       .  A
C993       H1003   1.084       .  S
C994        C999   1.474       .  S
C994        C995   1.399       .  A
C995        C996   1.399       .  A
C995       O1000   1.371       .  S
C996        C997   1.418       .  A
C996       H1001   1.083       .  S
C997        C998   1.428       .  A
C998       O1002   1.371       .  S
C999       C1004   1.404       .  A
C999       C1008   1.400       .  A
O1000      H1016   0.992       .  S
O1002      H1013   0.991       .  S
C1004      C1005   1.400       .  A
C1004      O1009   1.371       .  S
C1005      C1006   1.408       .  A
C1005      H1010   1.083       .  S
C1006      C1007   1.413       .  A
C1007      C1008   1.398       .  A
C1007      O1011   1.372       .  S
C1008      H1012   1.084       .  S
O1009      H1014   0.994       .  S
O1011      H1015   0.992       .  S
C1017      C1018   1.395       .  A
C1017      C1022   1.397       .  A
C1017      H1027   1.084       .  S
C1018      C1023   1.475       .  S
C1018      C1019   1.402       .  A
C1019      C1020   1.399       .  A
C1019      O1024   1.372       .  S
C1020      C1021   1.417       .  A
C1020      H1025   1.079       .  S
C1021      C1022   1.428       .  A
C1022      O1026   1.374       .  S
C1023      C1028   1.406       .  A
C1023      C1032   1.400       .  A
O1024      H1040   0.992       .  S
O1026      H1037   0.992   1_556  S
C1028      C1029   1.398       .  A
C1028      O1033   1.372       .  S
C1029      C1030   1.407       .  A
C1029      H1034   1.083       .  S
C1030      C1031   1.412       .  A
C1031      C1032   1.397       .  A
C1031      O1035   1.371       .  S
C1032      H1036   1.084       .  S
O1033      H1038   0.992       .  S
O1035      H1039   0.993       .  S
C1041      C1042   1.406       .  A
C1041      C1046   1.403       .  A
C1041      H1051   1.083       .  S
C1042      C1047   1.487       .  S
C1042      C1043   1.410       .  A
C1043      C1044   1.397       .  A
C1043      O1048   1.372       .  S
C1044      C1045   1.403       .  A
C1044      H1049   1.084       .  S
C1045      C1046   1.410       .  A
C1046      O1050   1.372       .  S
C1047      C1052   1.405       .  A
C1047      C1056   1.400       .  A
O1048      H1064   0.991       .  S
O1050      H1061   0.994       .  S
C1052      C1053   1.399       .  A
C1052      O1057   1.372       .  S
C1053      C1054   1.418       .  A
C1053      H1058   1.083       .  S
C1054      C1055   1.426       .  A
C1055      C1056   1.399       .  A
C1055      O1059   1.369       .  S
C1056      H1060   1.083       .  S
O1057      H1062   0.992       .  S
O1059      H1063   0.992       .  S
C1065      C1066   1.403       .  A
C1065      C1070   1.397       .  A
C1065      H1075   1.084       .  S
C1066      C1071   1.482       .  S
C1066      C1067   1.409       .  A
C1067      C1068   1.400       .  A
C1067      O1072   1.372       .  S
C1068      C1069   1.405       .  A
C1068      H1073   1.084       .  S
C1069      C1070   1.410       .  A
C1070      O1074   1.372       .  S
C1071      C1076   1.402       .  A
C1071      C1080   1.399       .  A
O1072      H1088   0.992       .  S
O1074      H1085   0.993       .  S
C1076      C1077   1.394       .  A
C1076      O1081   1.372       .  S
C1077      C1078   1.415       .  A
C1077      H1082   1.082       .  S
C1078      C1079   1.428       .  A
C1079      C1080   1.405       .  A
C1079      O1083   1.373       .  S
C1080      H1084   1.084       .  S
O1081      H1086   0.991       .  S
O1083      H1087   0.992       .  S
C1089      C1094   1.407       .  A
C1089      H1099   1.084       .  S
C1090      C1095   1.481   1_556  S
C1090      C1091   1.400       .  A
C1091      C1092   1.395       .  A
C1091      O1096   1.372       .  S
C1092      H1097   1.077       .  S
C1093      C1094   1.426       .  A
C1094      O1098   1.372       .  S
C1095      C1100   1.403   1_554  A
O1096      H1112   0.992       .  S
O1098      H1109   0.992       .  S
C1100      C1101   1.406       .  A
C1100      O1105   1.371       .  S
C1101      H1106   1.080       .  S
C1102      C1103   1.424       .  A
C1103      C1104   1.396       .  A
C1103      O1107   1.371       .  S
C1104      H1108   1.084       .  S
O1105      H1110   0.992       .  S
O1107      H1111   0.993       .  S
C1113      C1118   1.393       .  A
C1113      H1123   1.084       .  S
C1114      C1119   1.479   1_556  S
C1114      C1115   1.403       .  A
C1115      C1116   1.407       .  A
C1115      O1120   1.371       .  S
C1116      C1117   1.418       .  A
C1116      H1121   1.079       .  S
C1118      O1122   1.371       .  S
C1119      C1124   1.403       .  A
O1120      H1136   0.992       .  S
O1122      H1133   0.992       .  S
C1124      C1125   1.395       .  A
C1124      O1129   1.374       .  S
C1125      C1126   1.416       .  A
C1125      H1130   1.076       .  S
C1127      C1128   1.408       .  A
C1127      O1131   1.372       .  S
C1128      H1132   1.083       .  S
O1129      H1134   0.992       .  S
O1131      H1135   0.993       .  S
C1137      C1142   1.409       .  A
C1137      H1147   1.083       .  S
C1138      C1143   1.494       .  S
C1138      C1139   1.407       .  A
C1139      C1140   1.398       .  A
C1139      O1144   1.372       .  S
C1140      C1141   1.419       .  A
C1140      H1145   1.080       .  S
C1142      O1146   1.371       .  S
C1143      C1148   1.409       .  A
C1143      C1152   1.399       .  A
O1144      H1160   0.991       .  S
O1146      H1157   0.992       .  S
C1148      C1149   1.406       .  A
C1148      O1153   1.371       .  S
C1149      C1150   1.416       .  A
C1149      H1154   1.079       .  S
C1150      C1151   1.425       .  A
C1151      C1152   1.399       .  A
C1151      O1155   1.373       .  S
C1152      H1156   1.084       .  S
O1153      H1158   0.991       .  S
C1161      C1166   1.405       .  A
C1161      H1171   1.083       .  S
C1162      C1167   1.470       .  S
C1162      C1163   1.401       .  A
C1163      C1164   1.394       .  A
C1163      O1168   1.372       .  S
C1164      C1165   1.416       .  A
C1164      H1169   1.080       .  S
C1166      O1170   1.371       .  S
C1167      C1172   1.401       .  A
O1168      H1184   0.992       .  S
O1170      H1181   0.992       .  S
C1172      C1173   1.406       .  A
C1172      O1177   1.371       .  S
C1173      C1174   1.418       .  A
C1173      H1178   1.079       .  S
C1175      C1176   1.391       .  A
C1175      O1179   1.373       .  S
C1176      H1180   1.085       .  S
O1177      H1182   0.992       .  S
O1179      H1183   0.992       .  S
C1185      C1186   1.400       .  A
C1185      C1190   1.398       .  A
C1185      H1195   1.084       .  S
C1186      C1191   1.479       .  S
C1186      C1187   1.408       .  A
C1187      C1188   1.400       .  A
C1187      O1192   1.372       .  S
C1188      C1189   1.405       .  A
C1188      H1193   1.083       .  S
C1189      C1190   1.415       .  A
C1190      O1194   1.371       .  S
C1191      C1196   1.401       .  A
C1191      C1200   1.394       .  A
O1192      H1208   0.992       .  S
O1194      H1205   0.992       .  S
C1196      C1197   1.400       .  A
C1196      O1201   1.372       .  S
C1197      C1198   1.418       .  A
C1197      H1202   1.084       .  S
C1198      C1199   1.432       .  A
C1199      C1200   1.399       .  A
C1199      O1203   1.372       .  S
C1200      H1204   1.084       .  S
O1201      H1206   0.992       .  S
C1209      C1210   1.404       .  A
C1209      C1214   1.402       .  A
C1209      H1219   1.083       .  S
C1210      C1215   1.479       .  S
C1210      C1211   1.408       .  A
C1211      C1212   1.399       .  A
C1211      O1216   1.372       .  S
C1212      C1213   1.400       .  A
C1212      H1217   1.084       .  S
C1213      C1214   1.406       .  A
C1214      O1218   1.372       .  S
C1215      C1220   1.400       .  A
C1215      C1224   1.401       .  A
O1216      H1232   0.992       .  S
O1218      H1229   0.992       .  S
C1220      C1221   1.396       .  A
C1220      O1225   1.372       .  S
C1221      C1222   1.420       .  A
C1221      H1226   1.079       .  S
C1222      C1223   1.422       .  A
C1223      C1224   1.405       .  A
C1223      O1227   1.371       .  S
C1224      H1228   1.083       .  S
O1225      H1230   0.991       .  S
O1227      H1231   0.992       .  S
C1233      C1234   1.405       .  A
C1233      C1238   1.398       .  A
C1233      H1243   1.084       .  S
C1234      C1239   1.485       .  S
C1234      C1235   1.408       .  A
C1235      C1236   1.404       .  A
C1235      O1240   1.372       .  S
C1236      C1237   1.406       .  A
C1236      H1241   1.083       .  S
C1237      C1238   1.410       .  A
C1238      O1242   1.372       .  S
C1239      C1244   1.406       .  A
C1239      C1248   1.399       .  A
O1240      H1256   0.993       .  S
O1242      H1253   0.992       .  S
C1244      C1245   1.403       .  A
C1244      O1249   1.372       .  S
C1245      C1246   1.414       .  A
C1245      H1250   1.083       .  S
C1246      C1247   1.426       .  A
C1247      C1248   1.399       .  A
C1247      O1251   1.372       .  S
C1248      H1252   1.084       .  S
O1249      H1254   0.992       .  S
O1251      H1255   0.992       .  S
C1257      C1258   1.398       .  A
C1257      C1262   1.401       .  A
C1257      H1267   1.084       .  S
C1258      C1263   1.486       .  S
C1258      C1259   1.404       .  A
C1259      C1260   1.402       .  A
C1259      O1264   1.372       .  S
C1260      C1261   1.418       .  A
C1260      H1265   1.078       .  S
C1261      C1262   1.426       .  A
C1262      O1266   1.372       .  S
C1263      C1268   1.407       .  A
C1263      C1272   1.405       .  A
O1264      H1280   0.993       .  S
O1266      H1277   0.992       .  S
C1268      C1269   1.400       .  A
C1268      O1273   1.372       .  S
C1269      C1270   1.406       .  A
C1269      H1274   1.083       .  S
C1270      C1271   1.412       .  A
C1271      C1272   1.404       .  A
C1271      O1275   1.371       .  S
C1272      H1276   1.084       .  S
O1273      H1278   0.992       .  S
O1275      H1279   0.992       .  S
