geometry optimzed in LAMMPS
_audit_creation_date              2020-11-30 
_audit_creation_method            'lammps2cif' 
_symmetry_space_group_name_H-M    'P1' 
_symmetry_Int_Tables_number       1 
_symmetry_cell_setting            triclinic 
loop_ 
_symmetry_equiv_pos_as_xyz 
  x,y,z 
_cell_length_a                    47.71116497416167 
_cell_length_b                    48.329956210179 
_cell_length_c                    25.239183347182692 
_cell_angle_alpha                 89.51525503517254 
_cell_angle_beta                  92.03476146110106 
_cell_angle_gamma                 118.82171065312721 
loop_ 
_atom_site_label 
_atom_site_type_symbol 
_atom_site_fract_x 
_atom_site_fract_y 
_atom_site_fract_z 
_atom_site_charge 
O1          O  0.03487545  0.07116424  0.96249130    -0.80660
O2          O  0.01643221  0.44806945  0.95580156    -0.80690
O3          O  0.05643334  0.01977873  0.08913559    -0.80690
O4          O  0.47898879  0.47681534  0.87009682    -0.80640
O5          O  0.05495402  0.48539218  0.03086904    -0.80760
O6          O  0.51297123  0.02630596  0.88782956    -0.80680
O7          O  0.46707822  0.42564926  0.93279225    -0.80660
O8          O  0.05842047  0.05048836  0.00858675    -0.80700
C9          C  0.06012698  0.07365752  0.98429616     1.09030
C10         C  0.49249745  0.42376314  0.93967518     1.08910
C11         C  0.07017970  0.50634485  0.06561681     1.09050
C12         C  0.50014992  0.00362717  0.85554596     1.08930
O13         O  0.47044692  0.04566670  0.92325614    -0.80660
O14         O  0.00543692  0.46498453  0.10302117    -0.80740
O15         O  0.02246897  0.06190070  0.08089251    -0.80680
O16         O  0.44370222  0.45439566  0.01106220    -0.80660
O17         O  0.46230504  0.42305727  0.02911623    -0.80710
O18         O  0.48133796  0.03638278  0.02656482    -0.80670
O19         O  0.44324062  0.49458200  0.93889968    -0.80630
O20         O  0.98588009  0.99711040  0.09710191    -0.80700
Co21       Co  0.49570164  0.02804934  0.95662838     1.51530
Co22       Co  0.00956875  0.45767840  0.02703580     1.51690
Co23       Co  0.02039499  0.02379764  0.04859263     1.51570
Co24       Co  0.46213680  0.46534983  0.94226870     1.51470
O25         O  0.00504460  0.99354402  0.98793009    -1.42600
C26         C  0.44381977  0.02087597  0.93013428     1.08950
C27         C  0.99117782  0.47799039  0.12417682     1.09040
C28         C  0.99851870  0.06121918  0.05494661     1.08980
C29         C  0.43823365  0.42738650  0.02229506     1.08960
O30         O  0.00697302  0.99574599  0.37620173    -0.80660
O31         O  0.47969382  0.04242551  0.55629607    -0.80690
O32         O  0.46001343  0.50469092  0.42574028    -0.80690
O33         O  0.07130346  0.07283755  0.51878593    -0.80640
O34         O  0.43270424  0.99484862  0.49799654    -0.80760
O35         O  0.05280141  0.05150291  0.43810497    -0.80680
O36         O  0.01006089  0.05298703  0.48993855    -0.80660
O37         O  0.45800369  0.45413115  0.37705640    -0.80700
C38         C  0.98141661  0.97429600  0.35172514     1.09030
C39         C  0.49468486  0.06094258  0.51920366     1.08910
C40         C  0.43603903  0.50253678  0.44965049     1.09050
C41         C  0.07155478  0.07531618  0.46840877     1.08930
O42         O  0.07306355  0.01069782  0.49075162    -0.80660
O43         O  0.44137474  0.44810044  0.55699885    -0.80740
O44         O  0.47867803  0.43535428  0.46615170    -0.80680
O45         O  0.02728767  0.04336848  0.60121402    -0.80660
O46         O  0.48995341  0.49488762  0.61400829    -0.80710
O47         O  0.02863714  0.45993846  0.44782015    -0.80670
O48         O  0.05766414  0.01604797  0.56650494    -0.80630
O49         O  0.43030168  0.44425808  0.47193005    -0.80700
Co50       Co  0.03476954  0.00345791  0.44598833     1.51530
Co51       Co  0.46363122  0.49494503  0.55357448     1.51690
Co52       Co  0.47291164  0.47178866  0.44525069     1.51570
Co53       Co  0.03378637  0.03386585  0.52566633     1.51470
O54         O  0.99856077  0.99370176  0.50758649    -1.42600
C55         C  0.07652637  0.01126970  0.54017888     1.08950
C56         C  0.42383615  0.43266665  0.51770202     1.09040
C57         C  0.00498257  0.43577941  0.46421455     1.08980
C58         C  0.51097498  0.52093783  0.63255773     1.08960
O59         O  0.44606887  0.20519259  0.05561131    -0.80660
O60         O  0.01769460  0.31475053  0.04349927    -0.80690
O61         O  0.02862929  0.23545818  0.13254799    -0.80690
O62         O  0.45028365  0.25294865  0.98266159    -0.80640
O63         O  0.01960414  0.27645159  0.12571919    -0.80760
O64         O  0.42492401  0.20293071  0.95403451    -0.80680
O65         O  0.97442726  0.28368311  0.99605693    -0.80660
O66         O  0.47567982  0.18454206  0.08442438    -0.80700
C67         C  0.44845761  0.18345381  0.08074115     1.09030
C68         C  0.99244805  0.31034030  0.01758616     1.08910
C69         C  0.02219246  0.25583384  0.15333230     1.09050
C70         C  0.42360563  0.22682789  0.97183135     1.08930
O71         O  0.48339338  0.22674223  0.90633002    -0.80660
O72         O  0.07732431  0.28087595  0.08326717    -0.80740
O73         O  0.01348126  0.19632462  0.98938142    -0.80680
O74         O  0.03333318  0.31018994  0.94660411    -0.80660
O75         O  0.06733323  0.30469414  0.99688927    -0.80710
O76         O  0.46301006  0.17419743  0.98060230    -0.80670
O77         O  0.48206481  0.27122862  0.89351152    -0.80630
O78         O  0.06275127  0.24012646  0.03296225    -0.80700
Co79       Co  0.46684617  0.21842547  0.98490484     1.51530
Co80       Co  0.04210808  0.29085580  0.06039365     1.51690
Co81       Co  0.02002755  0.21603877  0.05838048     1.51570
Co82       Co  0.49681512  0.26418971  0.95947220     1.51470
O83         O  0.00949289  0.24829892  0.02512926    -1.42600
C84         C  0.48351395  0.24807950  0.87434918     1.08950
C85         C  0.08463035  0.26483960  0.05297194     1.09040
C86         C  0.48789144  0.17126189  0.98665744     1.08980
C87         C  0.06203594  0.32114236  0.96447419     1.08960
O88         O  0.43534438  0.20022936  0.51115650    -0.80660
O89         O  0.04322606  0.32890523  0.55201681    -0.80690
O90         O  0.99793154  0.23034926  0.62900492    -0.80690
O91         O  0.44725883  0.26214882  0.48596784    -0.80640
O92         O  0.01767644  0.28090464  0.62275641    -0.80760
O93         O  0.43970073  0.23094976  0.42138674    -0.80680
O94         O  0.49284754  0.30526974  0.54172955    -0.80660
O95         O  0.46397580  0.18544044  0.56115001    -0.80700
C96         C  0.43691358  0.18250745  0.54599104     1.09030
C97         C  0.01788082  0.33084412  0.54697151     1.08910
C98         C  0.00370498  0.25597989  0.64935380     1.09050
C99         C  0.43067767  0.24738189  0.44663928     1.08930
O100        O  0.50114771  0.23357346  0.40657789    -0.80660
O101        O  0.07888835  0.30296061  0.59310161    -0.80740
O102        O  0.02398315  0.20852058  0.49888447    -0.80680
O103        O  0.03756473  0.31762917  0.45518973    -0.80660
O104        O  0.06276281  0.29342501  0.48710486    -0.80710
O105        O  0.47658641  0.18046654  0.46675799    -0.80670
O106        O  0.49173931  0.27323031  0.39652176    -0.80630
O107        O  0.05851705  0.25176736  0.57511023    -0.80700
Co108      Co  0.46877637  0.21724859  0.45934900     1.51530
Co109      Co  0.03907366  0.28479780  0.55394014     1.51690
Co110      Co  0.01001321  0.22217205  0.56099957     1.51570
Co111      Co  0.49227801  0.28709248  0.47307587     1.51470
O112        O  0.99868607  0.25304571  0.51363703    -1.42600
C113        C  0.50059550  0.25440636  0.37763595     1.08950
C114        C  0.08240915  0.27875626  0.58911186     1.09040
C115        C  0.50291065  0.18252878  0.48100305     1.08980
C116        C  0.06277693  0.31532505  0.45897386     1.08960
O117        O  0.21591190  0.03390132  0.05789924    -0.80660
O118        O  0.26574469  0.44664448  0.98706795    -0.80690
O119        O  0.18121599  0.46611016  0.92779531    -0.80690
O120        O  0.25094934  0.99062545  0.13050324    -0.80640
O121        O  0.20562551  0.44368224  0.97129009    -0.80760
O122        O  0.26422480  0.04087788  0.12956049    -0.80680
O123        O  0.25198527  0.44681652  0.06728819    -0.80660
O124        O  0.19136679  0.48400405  0.03224835    -0.80700
C125        C  0.19046944  0.00737187  0.05273303     1.09030
C126        C  0.25830915  0.43308995  0.03105269     1.08910
C127        C  0.18006122  0.44122255  0.94683103     1.09050
C128        C  0.25422322  0.01477482  0.15406096     1.08930
O129        O  0.30988743  0.06955220  0.04553787    -0.80660
O130        O  0.24971101  0.46000282  0.89457481    -0.80740
O131        O  0.21543009  0.03155531  0.95405604    -0.80680
O132        O  0.31301197  0.99632596  0.02773382    -0.80660
O133        O  0.29975525  0.50859154  0.94972116    -0.80710
O134        O  0.26443841  0.06447877  0.97690591    -0.80670
O135        O  0.31658029  0.03858125  0.10230625    -0.80630
O136        O  0.24347147  0.50183318  0.89930001    -0.80700
Co137      Co  0.26327493  0.04945102  0.05020098     1.51530
Co138      Co  0.25366322  0.47882545  0.96185421     1.51690
Co139      Co  0.21918062  0.49231815  0.97067299     1.51570
Co140      Co  0.28100925  0.99358400  0.07836052     1.51470
O141        O  0.25739848  0.00690511  0.02355718    -1.42600
C142        C  0.32728488  0.06554919  0.07978050     1.08950
C143        C  0.24844821  0.48242293  0.87110174     1.09040
C144        C  0.23843942  0.05952037  0.95515083     1.08980
C145        C  0.32039009  0.50713335  0.98101940     1.08960
O146        O  0.21824786  0.03107996  0.56873673    -0.80660
O147        O  0.24724768  0.43660997  0.54131237    -0.80690
O148        O  0.18668349  0.45955098  0.43556612    -0.80690
O149        O  0.28491128  0.99170035  0.62086498    -0.80640
O150        O  0.19959263  0.43401756  0.49165577    -0.80760
O151        O  0.25776096  0.01733587  0.62097232    -0.80680
O152        O  0.29766392  0.45973453  0.54224632    -0.80660
O153        O  0.19202344  0.48609746  0.52958341    -0.80700
C154        C  0.19179718  0.00657625  0.55942940     1.09030
C155        C  0.27166514  0.43415054  0.54283838     1.08910
C156        C  0.17984146  0.43333566  0.45779933     1.09050
C157        C  0.26906719  0.00197284  0.64521948     1.08930
O158        O  0.28553409  0.07537254  0.57546531    -0.80660
O159        O  0.23665340  0.46336204  0.39695880    -0.80740
O160        O  0.20667660  0.02748435  0.44645064    -0.80680
O161        O  0.31634732  0.01466009  0.47543809    -0.80660
O162        O  0.28921433  0.46592033  0.44720323    -0.80710
O163        O  0.25649566  0.05221324  0.47839574    -0.80670
O164        O  0.31086368  0.04854098  0.55951170    -0.80630
O165        O  0.25128631  0.51258579  0.41133586    -0.80700
Co166      Co  0.25955563  0.03266003  0.54824592     1.51530
Co167      Co  0.24342564  0.45171902  0.47182161     1.51690
Co168      Co  0.22284359  0.50008574  0.47218708     1.51570
Co169      Co  0.29881398  0.00282127  0.54673423     1.51470
O170        O  0.25164309  0.48982985  0.51585259    -1.42600
C171        C  0.31173654  0.07498960  0.56915134     1.08950
C172        C  0.24575871  0.49088975  0.37917754     1.09040
C173        C  0.23102560  0.05319719  0.46209691     1.08980
C174        C  0.31487885  0.49245178  0.44755531     1.08960
O175        O  0.19240244  0.20360764  0.00801218    -0.80660
O176        O  0.29036312  0.31534297  0.04256113    -0.80690
O177        O  0.23642099  0.23402632  0.07849916    -0.80690
O178        O  0.22116508  0.30505745  0.93030224    -0.80640
O179        O  0.28764672  0.26390645  0.09352124    -0.80760
O180        O  0.19686100  0.25397736  0.94712754    -0.80680
O181        O  0.23998826  0.29147878  0.02309758    -0.80660
O182        O  0.21145276  0.17330702  0.03885118    -0.80700
C183        C  0.18727883  0.17634467  0.02307663     1.09030
C184        C  0.26370494  0.31504602  0.04342834     1.08910
C185        C  0.25950859  0.24948967  0.11067919     1.09050
C186        C  0.19636748  0.28033708  0.94585673     1.08930
O187        O  0.22250147  0.23183430  0.86490408    -0.80660
O188        O  0.31671738  0.25229607  0.00273156    -0.80740
O189        O  0.25790757  0.19486263  0.96060381    -0.80680
O190        O  0.29017352  0.32590044  0.94574873    -0.80660
O191        O  0.31501155  0.29876543  0.95032358    -0.80710
O192        O  0.21396150  0.18222515  0.91913218    -0.80670
O193        O  0.25603754  0.28200411  0.87076219    -0.80630
O194        O  0.28344408  0.21279836  0.05049637    -0.80700
Co195      Co  0.21137183  0.22135386  0.93811057     1.51530
Co196      Co  0.30005494  0.28061208  0.01930881     1.51690
Co197      Co  0.24510183  0.21461181  0.01634642     1.51570
Co198      Co  0.24719904  0.28483642  0.94784654     1.51470
O199        O  0.25980374  0.25234615  0.97185966    -1.42600
C200        C  0.24154099  0.25692339  0.84336186     1.08950
C201        C  0.31005848  0.22740387  0.02743963     1.09040
C202        C  0.23646794  0.17646548  0.92954908     1.08980
C203        C  0.31655204  0.32514263  0.94730930     1.08960
O204        O  0.20224501  0.17894672  0.42024898    -0.80660
O205        O  0.22569593  0.28590955  0.48418691    -0.80690
O206        O  0.18659316  0.24357398  0.53571139    -0.80690
O207        O  0.24425840  0.26081023  0.36592037    -0.80640
O208        O  0.22284789  0.28014183  0.58996579    -0.80760
O209        O  0.25116447  0.21899432  0.36369198    -0.80680
O210        O  0.26618971  0.31310680  0.43819205    -0.80660
O211        O  0.18553829  0.21115063  0.44440583    -0.80700
C212        C  0.17999828  0.18624978  0.42118378     1.09030
C213        C  0.24467169  0.31198704  0.46600307     1.08910
C214        C  0.19432171  0.26587234  0.57004430     1.09050
C215        C  0.24529269  0.23907068  0.33958728     1.08930
O216        O  0.29559287  0.22664925  0.45348947    -0.80660
O217        O  0.26176021  0.25135564  0.59170377    -0.80740
O218        O  0.19929245  0.16881975  0.51353584    -0.80680
O219        O  0.30882758  0.29379950  0.48246790    -0.80660
O220        O  0.28504332  0.30660782  0.54232697    -0.80710
O221        O  0.24945035  0.19087471  0.51222214    -0.80670
O222        O  0.30314607  0.26207914  0.39446858    -0.80630
O223        O  0.21411369  0.21240635  0.59433478    -0.80700
Co224      Co  0.24967013  0.20586913  0.44069175     1.51530
Co225      Co  0.24291859  0.26673866  0.53685586     1.51690
Co226      Co  0.20143048  0.21222588  0.51693845     1.51570
Co227      Co  0.27564510  0.27779711  0.42590285     1.51470
O228        O  0.24693901  0.24183056  0.47863624    -1.42600
C229        C  0.31270146  0.24558365  0.41959880     1.08950
C230        C  0.23988447  0.23135993  0.61879338     1.09040
C231        C  0.22417574  0.16596085  0.51585130     1.08980
C232        C  0.30977131  0.31247674  0.51741706     1.08960
C233        C  0.24096068  0.23574387  0.67762945    -0.00680
C234        C  0.27060277  0.25251582  0.70596072    -0.12550
C235        C  0.27211963  0.26160820  0.75958848     0.01560
C236        C  0.24375108  0.25487925  0.78516770    -0.00770
C237        C  0.21448109  0.23877729  0.75663954    -0.12490
C238        C  0.21268598  0.22904784  0.70418043     0.01440
H239        H  0.29260452  0.25855235  0.68619387     0.14420
H240        H  0.19244675  0.23302783  0.77622399     0.14420
C241        C  0.18120460  0.21344552  0.67855642     0.36070
C242        C  0.30264173  0.27646543  0.78813092     0.35980
N243        N  0.15590152  0.20107574  0.65838128    -0.44270
N244        N  0.32707059  0.28825205  0.81121090    -0.44270
C245        C  0.25400674  0.24708837  0.16856577    -0.00680
C246        C  0.24563838  0.21813813  0.19309053    -0.12550
C247        C  0.24240124  0.21470554  0.24822180     0.01560
C248        C  0.24515910  0.24005356  0.28010654    -0.00770
C249        C  0.25264141  0.26879715  0.25488462    -0.12490
C250        C  0.25813600  0.27278442  0.20026002     0.01440
H251        H  0.24329128  0.19849038  0.16927674     0.14420
H252        H  0.25620430  0.28898338  0.27841795     0.14420
C253        C  0.26949705  0.30395052  0.17885559     0.36070
C254        C  0.23867631  0.18562270  0.27068007     0.35980
N255        N  0.27925056  0.32951669  0.16382257    -0.44270
N256        N  0.23670692  0.16257695  0.28820689    -0.44270
C257        C  0.26789267  0.40385371  0.52368002    -0.00680
C258        C  0.25461813  0.39407904  0.47191785    -0.12550
C259        C  0.24519997  0.36362845  0.45309558     0.01560
C260        C  0.24749297  0.34170830  0.48696394    -0.00770
C261        C  0.25803554  0.35064084  0.54016965    -0.12490
C262        C  0.26864021  0.38149535  0.55842827     0.01440
H263        H  0.25069462  0.40993457  0.44609838     0.14420
H264        H  0.25878758  0.33404985  0.56792342     0.14420
C265        C  0.27891761  0.38933591  0.61332065     0.36070
C266        C  0.23231576  0.35504345  0.39948437     0.35980
N267        N  0.28707339  0.39562102  0.65734369    -0.44270
N268        N  0.22190292  0.34810596  0.35658271    -0.44270
C269        C  0.22896729  0.08248274  0.47002645    -0.00680
C270        C  0.19909325  0.08014984  0.48026023    -0.12550
C271        C  0.19678938  0.10651897  0.49743043     0.01560
C272        C  0.22462549  0.13592120  0.50495662    -0.00770
C273        C  0.25442929  0.13802302  0.49458992    -0.12490
C274        C  0.25679540  0.11205579  0.47664385     0.01440
H275        H  0.17754445  0.05745079  0.47664422     0.14420
H276        H  0.27627908  0.16041522  0.49908129     0.14420
C277        C  0.28820354  0.11688197  0.46433769     0.36070
C278        C  0.16575342  0.10270570  0.50787326     0.35980
N279        N  0.31341826  0.12097924  0.45444170    -0.44270
N280        N  0.14108788  0.10018331  0.51690867    -0.44270
C281        C  0.25420188  0.48698156  0.81337288    -0.00680
C282        C  0.25141128  0.01150111  0.78821837    -0.12550
C283        C  0.25617622  0.01680690  0.73398890     0.01560
C284        C  0.26391112  0.99711323  0.70305198    -0.00770
C285        C  0.26707012  0.47277743  0.72822276    -0.12490
C286        C  0.26226336  0.46745619  0.78262350     0.01440
H287        H  0.24548312  0.02678757  0.81101733     0.14420
H288        H  0.27306375  0.45760918  0.70523066     0.14420
C289        C  0.26593122  0.44174767  0.80513765     0.36070
C290        C  0.25367801  0.04331866  0.71211002     0.35980
N291        N  0.26889221  0.42111445  0.82293656    -0.44270
N292        N  0.25158372  0.06454450  0.69487053    -0.44270
C293        C  0.24676303  0.49733888  0.32144018    -0.00680
C294        C  0.26712779  0.02807224  0.30331838    -0.12550
C295        C  0.26850230  0.03531963  0.24908895     0.01560
C296        C  0.24888210  0.01161167  0.21190087    -0.00770
C297        C  0.22722328  0.48147954  0.23055845    -0.12490
C298        C  0.22609181  0.47412710  0.28436734     0.01440
H299        H  0.28267190  0.04632690  0.33149004     0.14420
H300        H  0.21171612  0.46308243  0.20253116     0.14420
C301        C  0.20303259  0.44266863  0.30016838     0.36070
C302        C  0.29155494  0.06657971  0.23262513     0.35980
N303        N  0.18453820  0.41747239  0.31275718    -0.44270
N304        N  0.31005724  0.09162802  0.21941642    -0.44270
C305        C  0.26303515  0.34557667  0.05053930    -0.00680
C306        C  0.28776880  0.37244530  0.02794676    -0.12550
C307        C  0.28575650  0.40005056  0.01983304     0.01560
C308        C  0.26021932  0.40326280  0.04014837    -0.00770
C309        C  0.23649617  0.37730918  0.06730644    -0.12490
C310        C  0.23715106  0.34825984  0.07089624     0.01440
H311        H  0.30798559  0.37126188  0.01261809     0.14420
H312        H  0.21660832  0.37911313  0.08314073     0.14420
C313        C  0.21134823  0.32173363  0.09595461     0.36070
C314        C  0.30936874  0.42364432  0.98679773     0.35980
N315        N  0.19071635  0.30043030  0.11618076    -0.44270
N316        N  0.32780084  0.44140939  0.95826700    -0.44270
C317        C  0.23399383  0.08694091  0.93962426    -0.00680
C318        C  0.25303495  0.10829643  0.90066395    -0.12550
C319        C  0.25311813  0.13741151  0.89270129     0.01560
C320        C  0.23264162  0.14446692  0.92185642    -0.00770
C321        C  0.21281047  0.12236310  0.95787400    -0.12490
C322        C  0.21469609  0.09527799  0.96955324     0.01440
H323        H  0.26908275  0.10308100  0.87871825     0.14420
H324        H  0.19902547  0.12840571  0.98349690     0.14420
C325        C  0.20249042  0.08222261  0.02036714     0.36070
C326        C  0.27478242  0.15994564  0.85601766     0.35980
N327        N  0.19335295  0.07586913  0.06295577    -0.44270
N328        N  0.29210840  0.17814338  0.82661374    -0.44270
C329        C  0.34370207  0.10355303  0.56830203    -0.00680
C330        C  0.36603366  0.10122668  0.53655015    -0.12550
C331        C  0.39671817  0.12611983  0.53155521     0.01560
C332        C  0.40659693  0.15454182  0.55955031    -0.00770
C333        C  0.38451389  0.15736500  0.59172041    -0.12490
C334        C  0.35312001  0.13198788  0.59644875     0.01440
H335        H  0.35913962  0.07997752  0.51327400     0.14420
H336        H  0.39153604  0.17954460  0.61204277     0.14420
C337        C  0.33138919  0.13552641  0.63046812     0.36070
C338        C  0.41603354  0.12235072  0.49278771     0.35980
N339        N  0.31397511  0.13832597  0.65791186    -0.44270
N340        N  0.43001489  0.11816288  0.46022455    -0.44270
C341        C  0.09349869  0.34251856  0.44202587    -0.00680
C342        C  0.12139838  0.34499523  0.46547919    -0.12550
C343        C  0.14929803  0.37376599  0.46999765     0.01560
C344        C  0.15100068  0.40170081  0.44694857    -0.00770
C345        C  0.12419685  0.39846333  0.41693948    -0.12490
C346        C  0.09547227  0.36925658  0.41462620     0.01440
H347        H  0.12063605  0.32496402  0.48595179     0.14420
H348        H  0.12503840  0.41899958  0.39778814     0.14420
C349        C  0.06833431  0.36770170  0.38494522     0.36070
C350        C  0.17395265  0.37317035  0.50422397     0.35980
N351        N  0.04670861  0.36654393  0.36080388    -0.44270
N352        N  0.19222719  0.37137717  0.53344338    -0.44270
C353        C  0.40233919  0.25020456  0.43121347    -0.00680
C354        C  0.37845825  0.22671111  0.39865692    -0.12550
C355        C  0.34904369  0.22590711  0.39048858     0.01560
C356        C  0.34431761  0.24980800  0.41279654    -0.00770
C357        C  0.36897262  0.27489428  0.44056217    -0.12490
C358        C  0.39761982  0.27495905  0.45150051     0.01440
H359        H  0.38186278  0.20778693  0.38284546     0.14420
H360        H  0.36468010  0.29285933  0.45830300     0.14420
C361        C  0.41978662  0.29918271  0.48787872     0.36070
C362        C  0.32353073  0.19952406  0.36197949     0.35980
N363        N  0.43626448  0.31835432  0.51843901    -0.44270
N364        N  0.30315177  0.17825929  0.33923255    -0.44270
C365        C  0.11455190  0.28189860  0.58763722    -0.00680
C366        C  0.12324280  0.27713692  0.53791435    -0.12550
C367        C  0.15114306  0.27568118  0.53138457     0.01560
C368        C  0.17055198  0.27694232  0.57624733    -0.00770
C369        C  0.16285715  0.28336406  0.62643709    -0.12490
C370        C  0.13492371  0.28613546  0.63228215     0.01440
H371        H  0.10737525  0.27340644  0.50363520     0.14420
H372        H  0.17738270  0.28429507  0.66109306     0.14420
C373        C  0.12646227  0.29113981  0.68424182     0.36070
C374        C  0.15793536  0.27127563  0.47762042     0.35980
N375        N  0.11955573  0.29519036  0.72583780    -0.44270
N376        N  0.16267678  0.26755961  0.43428217    -0.44270
C377        C  0.48841622  0.24878220  0.81686311    -0.00680
C378        C  0.00927089  0.27817987  0.79469730    -0.12550
C379        C  0.01335426  0.28176737  0.74002071     0.01560
C380        C  0.99592347  0.25558188  0.70590755    -0.00770
C381        C  0.47433797  0.22629308  0.72823915    -0.12490
C382        C  0.47069730  0.22268946  0.78316324     0.01440
H383        H  0.02288357  0.29851561  0.82052517     0.14420
H384        H  0.46074944  0.20580464  0.70276127     0.14420
C385        C  0.44814523  0.19236288  0.80381926     0.36070
C386        C  0.03692554  0.31208309  0.72076500     0.35980
N387        N  0.43007748  0.16807634  0.82047801    -0.44270
N388        N  0.05598028  0.33633279  0.70546806    -0.44270
C389        C  0.01842631  0.25624487  0.21125911    -0.00680
C390        C  0.50651346  0.22777557  0.23888866    -0.12550
C391        C  0.50044826  0.22658366  0.29288594     0.01560
C392        C  0.50713247  0.25460184  0.32076794    -0.00770
C393        C  0.01938353  0.28310035  0.29335111    -0.12490
C394        C  0.02505818  0.28424246  0.23922246     0.01440
H395        H  0.50074783  0.20610231  0.21779244     0.14420
H396        H  0.02458836  0.30462755  0.31434955     0.14420
C397        C  0.03803095  0.31470840  0.21412998     0.36070
C398        C  0.48533797  0.19587313  0.31737777     0.35980
N399        N  0.04823282  0.33929355  0.19469760    -0.44270
N400        N  0.47295835  0.17117731  0.33660036    -0.44270
C401        C  0.35924997  0.09431354  0.09402367    -0.00680
C402        C  0.36005349  0.12364095  0.10165565    -0.12550
C403        C  0.38918123  0.15243501  0.10516720     0.01560
C404        C  0.41855299  0.15331452  0.09567960    -0.00770
C405        C  0.41810903  0.12384913  0.09363454    -0.12490
C406        C  0.38911163  0.09473897  0.09450469     0.01440
H407        H  0.33769847  0.12403192  0.10577968     0.14420
H408        H  0.44045185  0.12342397  0.09027492     0.14420
C409        C  0.39094680  0.06593174  0.09729760     0.36070
C410        C  0.38899487  0.17985944  0.12635573     0.35980
N411        N  0.39322930  0.04328729  0.10211803    -0.44270
N412        N  0.38926832  0.20130311  0.14682066    -0.44270
C413        C  0.14879175  0.41119811  0.94807073    -0.00680
C414        C  0.13690338  0.39906415  0.99765233    -0.12550
C415        C  0.10760729  0.37143002  0.00255199     0.01560
C416        C  0.08917406  0.35411945  0.95708252    -0.00770
C417        C  0.10054745  0.36672104  0.90691588    -0.12490
C418        C  0.12999303  0.39517192  0.90222564     0.01440
H419        H  0.15056499  0.41148516  0.03313645     0.14420
H420        H  0.08728701  0.35378967  0.87157350     0.14420
C421        C  0.14142552  0.40655037  0.85010624     0.36070
C422        C  0.09712551  0.36130210  0.05564003     0.35980
N423        N  0.15079868  0.41569310  0.80837884    -0.44270
N424        N  0.08896301  0.35332702  0.09829956    -0.44270
C425        C  0.39234236  0.22280539  0.98834766    -0.00680
C426        C  0.39011685  0.23243679  0.03967166    -0.12550
C427        C  0.36117810  0.22950351  0.05717444     0.01560
C428        C  0.33359821  0.21612518  0.02353552    -0.00770
C429        C  0.33533660  0.20436994  0.97362051    -0.12490
C430        C  0.36435802  0.20776041  0.95572340     0.01440
H431        H  0.41144806  0.24366349  0.06531715     0.14420
H432        H  0.31475202  0.19549895  0.94633951     0.14420
C433        C  0.36557672  0.19869173  0.90184062     0.36070
C434        C  0.36096974  0.24319170  0.10771558     0.35980
N435        N  0.36678208  0.19182277  0.85849369    -0.44270
N436        N  0.36067648  0.25403655  0.14825883    -0.44270
C437        C  0.16883329  0.28008188  0.97358776    -0.00680
C438        C  0.14862782  0.25152161  0.99900832    -0.12550
C439        C  0.12436434  0.24828581  0.03108874     0.01560
C440        C  0.11748007  0.27328000  0.03706647    -0.00770
C441        C  0.13770700  0.30247395  0.01314513    -0.12490
C442        C  0.16368666  0.30621208  0.98229092     0.01440
H443        H  0.15166583  0.23082759  0.99486594     0.14420
H444        H  0.13241474  0.32180837  0.01641140     0.14420
C445        C  0.18400772  0.33659014  0.95953856     0.36070
C446        C  0.10563462  0.21786010  0.05534085     0.35980
N447        N  0.20033508  0.36107532  0.94158893    -0.44270
N448        N  0.09074665  0.19332928  0.07407381    -0.44270
C449        C  0.33836271  0.34338562  0.52053333    -0.00680
C450        C  0.35380010  0.35709913  0.56919860    -0.12550
C451        C  0.38234416  0.38613453  0.57043564     0.01560
C452        C  0.39490820  0.40169056  0.52224867    -0.00770
C453        C  0.37870095  0.38767052  0.47425543    -0.12490
C454        C  0.35097455  0.35919377  0.47285885     0.01440
H455        H  0.34405002  0.34484024  0.60579745     0.14420
H456        H  0.38757087  0.39893025  0.43657740     0.14420
C457        C  0.33599112  0.34733586  0.42109405     0.36070
C458        C  0.39821520  0.39892779  0.62106329     0.35980
N459        N  0.32458558  0.33838876  0.37922454    -0.44270
N460        N  0.41100284  0.40905414  0.66169645    -0.44270
C461        C  0.09249130  0.10575342  0.44428957    -0.00680
C462        C  0.10952953  0.10590149  0.40002700    -0.12550
C463        C  0.13684534  0.13350215  0.38594116     0.01560
C464        C  0.14628680  0.16151838  0.41506913    -0.00770
C465        C  0.12540384  0.16229812  0.45235691    -0.12490
C466        C  0.09950291  0.13452397  0.46887298     0.01440
H467        H  0.10359995  0.08386883  0.38003911     0.14420
H468        H  0.13169036  0.18382693  0.47434202     0.14420
C469        C  0.08298206  0.13606960  0.51470301     0.36070
C470        C  0.15544871  0.13184686  0.34363983     0.35980
N471        N  0.07038350  0.13769081  0.55197670    -0.44270
N472        N  0.16950589  0.12966783  0.30901681    -0.44270
C473        C  0.34531221  0.49580665  0.42527331    -0.00680
C474        C  0.37281214  0.02588658  0.42426924    -0.12550
C475        C  0.40365988  0.02900317  0.42044782     0.01560
C476        C  0.40780241  0.50215809  0.42194511    -0.00770
C477        C  0.38048198  0.47259013  0.41498537    -0.12490
C478        C  0.34957792  0.46935695  0.41418324     0.01440
H479        H  0.37038068  0.04695517  0.42796762     0.14420
H480        H  0.38321941  0.45159318  0.41344179     0.14420
C481        C  0.32328870  0.43853105  0.40183947     0.36070
C482        C  0.43036435  0.05930291  0.40974528     0.35980
N483        N  0.30330555  0.41362888  0.38933903    -0.44270
N484        N  0.45138282  0.08315839  0.39728613    -0.44270
C485        C  0.10278952  0.00667834  0.56409769    -0.00680
C486        C  0.10377861  0.47926632  0.55007241    -0.12550
C487        C  0.13142886  0.47665757  0.55880468     0.01560
C488        C  0.16046154  0.00357383  0.57470799    -0.00770
C489        C  0.15877711  0.02997804  0.59424608    -0.12490
C490        C  0.12967740  0.03099669  0.59116992     0.01440
H491        H  0.08333976  0.46023560  0.52989807     0.14420
H492        H  0.18035802  0.05043868  0.60906112     0.14420
C493        C  0.12832894  0.05767002  0.61351915     0.36070
C494        C  0.12910898  0.44611692  0.55026239     0.35980
N495        N  0.12707585  0.07883348  0.63213646    -0.44270
N496        N  0.12653067  0.42124259  0.54486336    -0.44270
C497        C  0.00892401  0.40915930  0.48416581    -0.00680
C498        C  0.02420888  0.41212622  0.53412841    -0.12550
C499        C  0.02932349  0.38774590  0.55458906     0.01560
C500        C  0.01759025  0.35934533  0.52582370    -0.00770
C501        C  0.50230365  0.35658612  0.47571848    -0.12490
C502        C  0.49792547  0.38114614  0.45482464     0.01440
H503        H  0.03182227  0.43345583  0.55745896     0.14420
H504        H  0.49298243  0.33478108  0.45310397     0.14420
C505        C  0.48170336  0.37695774  0.40373060     0.36070
C506        C  0.04580209  0.39207696  0.60535929     0.35980
N507        N  0.46866049  0.37363972  0.36283607    -0.44270
N508        N  0.05927493  0.39582347  0.64592866    -0.44270
C509        C  0.49703338  0.09248916  0.51108048    -0.00680
C510        C  0.01047455  0.10876958  0.46386622    -0.12550
C511        C  0.01408505  0.13885655  0.45390465     0.01560
C512        C  0.50467963  0.15345337  0.49182128    -0.00770
C513        C  0.49302835  0.13821174  0.54002817    -0.12490
C514        C  0.48889163  0.10798360  0.54986426     0.01440
H515        H  0.01777845  0.09780246  0.43395261     0.14420
H516        H  0.48655667  0.14970357  0.57009794     0.14420
C517        C  0.47720534  0.09429817  0.60074223     0.36070
C518        C  0.02725766  0.15414567  0.40459363     0.35980
N519        N  0.46800571  0.08410034  0.64204741    -0.44270
N520        N  0.03798012  0.16639424  0.36511638    -0.44270
C521        C  0.51248768  0.52427686  0.69039546    -0.00680
C522        C  0.03743931  0.52329196  0.72021939    -0.12550
C523        C  0.03409229  0.51602666  0.77454413     0.01560
C524        C  0.50568844  0.01015856  0.79903147    -0.00770
C525        C  0.48143495  0.01221310  0.76959859    -0.12490
C526        C  0.48432942  0.01869413  0.71572656     0.01440
H527        H  0.05834048  0.52582803  0.70038775     0.14420
H528        H  0.45963422  0.00784503  0.78864224     0.14420
C529        C  0.45675357  0.01657121  0.68638657     0.36070
C530        C  0.05855331  0.51196439  0.80314559     0.35980
N531        N  0.43435990  0.01417291  0.66303424    -0.44270
N532        N  0.07792832  0.50822716  0.82593862    -0.44270
C533        C  0.98473548  0.47358567  0.18194862    -0.00680
C534        C  0.47065514  0.98973026  0.20650434    -0.12550
C535        C  0.46833802  0.98961307  0.26188282     0.01560
C536        C  0.98015691  0.97311510  0.29350184    -0.00770
C537        C  0.99294686  0.45602757  0.26939882    -0.12490
C538        C  0.99534592  0.45596827  0.21443883     0.01440
H539        H  0.46231644  0.00327184  0.18267670     0.14420
H540        H  0.00191636  0.44323742  0.29396114     0.14420
C541        C  0.01010353  0.43850887  0.19363188     0.36070
C542        C  0.45452684  0.00715559  0.28544231     0.35980
N543        N  0.02210350  0.42461750  0.17732339    -0.44270
N544        N  0.44339050  0.02123747  0.30408692    -0.44430
C545        C  0.40581560  0.40135188  0.00794208    -0.00680
C546        C  0.38728349  0.40728893  0.96888712    -0.12550
C547        C  0.35846151  0.38300105  0.94755765     0.01560
C548        C  0.34719169  0.35221942  0.96610250    -0.00770
C549        C  0.36526857  0.34641850  0.00604694    -0.12490
C550        C  0.39431028  0.37052947  0.02676401     0.01440
H551        H  0.39595243  0.43080866  0.95297717     0.14420
H552        H  0.35660294  0.32281210  0.02161896     0.14420
C553        C  0.41154426  0.36310624  0.06759930     0.36070
C554        C  0.34184070  0.38976855  0.90482172     0.35980
N555        N  0.42534526  0.35714659  0.10033579    -0.44270
N556        N  0.32852792  0.39504521  0.87033275    -0.44270
C557        C  0.15452598  0.14949711  0.01459657    -0.00680
C558        C  0.14642330  0.13290858  0.96591170    -0.12550
C559        C  0.11520247  0.10938222  0.95329723     0.01560
C560        C  0.09074083  0.10315789  0.98825785    -0.00770
C561        C  0.09832075  0.12068053  0.03577904    -0.12490
C562        C  0.12978534  0.14399995  0.04883135     0.01440
H563        H  0.16420741  0.13807039  0.93690326     0.14420
H564        H  0.07985082  0.11507788  0.06385928     0.14420
C565        C  0.13619329  0.16192017  0.09741339     0.36070
C566        C  0.10916349  0.09120168  0.90516437     0.35980
N567        N  0.14133780  0.17648533  0.13614473    -0.44270
N568        N  0.10469855  0.07676949  0.86651178    -0.44270
C569        C  0.41352153  0.52096086  0.94073205    -0.00680
C570        C  0.39732459  0.03079034  0.90386079    -0.12550
C571        C  0.36683697  0.02732783  0.91512777     0.01560
C572        C  0.35288615  0.51443275  0.96426137    -0.00770
C573        C  0.36985985  0.50543647  0.00023406    -0.12490
C574        C  0.39891037  0.50789815  0.98915086     0.01440
H575        H  0.40795637  0.04033040  0.86620131     0.14420
H576        H  0.35981983  0.49474789  0.03772210     0.14420
C577        C  0.41302084  0.49745016  0.03094440     0.36070
C578        C  0.35053738  0.03683494  0.87589054     0.35980
N579        N  0.42247057  0.48900877  0.06695862    -0.44270
N580        N  0.33748003  0.04448340  0.84436987    -0.44270
C581        C  0.15907999  0.00650740  0.05943186    -0.00680
C582        C  0.14770649  0.00727748  0.11009747    -0.12550
C583        C  0.11971215  0.01023670  0.11551051     0.01560
C584        C  0.10467462  0.01549525  0.07028225    -0.00770
C585        C  0.11827942  0.51791581  0.02106832    -0.12490
C586        C  0.14296778  0.01089311  0.01467660     0.01440
H587        H  0.16002859  0.00462335  0.14505419     0.14420
H588        H  0.10667763  0.52144563  0.98575874     0.14420
C589        C  0.14971057  0.50753170  0.96062116     0.36070
C590        C  0.10615063  0.00658708  0.16688668     0.35980
N591        N  0.15295219  0.50491258  0.91603560    -0.44270
N592        N  0.09515314  0.00365914  0.20804842    -0.44270
C593        C  0.49190437  0.39297040  0.94951740    -0.00680
C594        C  0.46265781  0.36587571  0.95898894    -0.12550
C595        C  0.46158977  0.33891070  0.98276094     0.01560
C596        C  0.99026666  0.33879140  0.99896439    -0.00770
C597        C  0.01939678  0.36574110  0.98803648    -0.12490
C598        C  0.02052616  0.39195437  0.96232222     0.01440
H599        H  0.44041966  0.36621841  0.95011221     0.14420
H600        H  0.04181830  0.36613946  0.99813601     0.14420
C601        C  0.05170617  0.41751397  0.94986671     0.36070
C602        C  0.43047315  0.31302612  0.99253971     0.35980
N603        N  0.07672636  0.43783906  0.93991119    -0.44270
N604        N  0.40447632  0.29376178  0.99932477    -0.44270
C605        C  0.99238487  0.08905617  0.04914004    -0.00680
C606        C  0.46631478  0.08559674  0.01626883    -0.12550
C607        C  0.46396127  0.11146950  0.99521029     0.01560
C608        C  0.48768073  0.14219263  0.00844801    -0.00770
C609        C  0.01146673  0.14578339  0.04721028    -0.12490
C610        C  0.01360550  0.11968281  0.06816944     0.01440
H611        H  0.44803135  0.06259538  0.00629065     0.14420
H612        H  0.02819231  0.16916105  0.06203802     0.14420
C613        C  0.03625185  0.12483748  0.11131414     0.36070
C614        C  0.43761517  0.10605174  0.95917571     0.35980
N615        N  0.05402876  0.12899679  0.14663816    -0.44270
N616        N  0.41674174  0.10241315  0.93021258    -0.44270
O617        O  0.03487476  0.57116429  0.96249160    -0.80660
O618        O  0.01643224  0.94806914  0.95580209    -0.80690
O619        O  0.05643243  0.51977850  0.08913558    -0.80690
O620        O  0.47898899  0.97681485  0.87009759    -0.80640
O621        O  0.05495440  0.98539212  0.03086910    -0.80760
O622        O  0.51297085  0.52630640  0.88782945    -0.80680
O623        O  0.46707815  0.92564895  0.93279345    -0.80660
O624        O  0.05841977  0.55048851  0.00858732    -0.80700
C625        C  0.06012625  0.57365764  0.98429669     1.09030
C626        C  0.49249735  0.92376279  0.93967613     1.08910
C627        C  0.07018032  0.00634478  0.06561680     1.09050
C628        C  0.50014962  0.50362778  0.85554549     1.08930
O629        O  0.47044652  0.54566688  0.92325640    -0.80660
O630        O  0.00543759  0.96498485  0.10302160    -0.80740
O631        O  0.02246809  0.56190002  0.08089356    -0.80680
O632        O  0.44370256  0.95439588  0.01106311    -0.80660
O633        O  0.46230527  0.92305742  0.02911738    -0.80710
O634        O  0.48133733  0.53638257  0.02656506    -0.80670
O635        O  0.44324105  0.99458192  0.93890003    -0.80630
O636        O  0.98587898  0.49710969  0.09710105    -0.80700
Co637      Co  0.49570114  0.52804939  0.95662840     1.51530
Co638      Co  0.00956908  0.95767842  0.02703632     1.51690
Co639      Co  0.02039410  0.52379737  0.04859244     1.51570
Co640      Co  0.46213704  0.96534969  0.94226950     1.51470
O641        O  0.00504424  0.49354404  0.98792963    -1.42600
C642        C  0.44381936  0.52087613  0.93013424     1.08950
C643        C  0.99117882  0.97799097  0.12417752     1.09040
C644        C  0.99851803  0.56121875  0.05494753     1.08980
C645        C  0.43823391  0.92738673  0.02229626     1.08960
O646        O  0.00697228  0.49574540  0.37620083    -0.80660
O647        O  0.47969248  0.54242613  0.55629591    -0.80690
O648        O  0.46001452  0.00469027  0.42574051    -0.80690
O649        O  0.07130179  0.57283860  0.51878403    -0.80640
O650        O  0.43270306  0.49484900  0.49799623    -0.80760
O651        O  0.05279953  0.55150345  0.43810341    -0.80680
O652        O  0.01005900  0.55298730  0.48993770    -0.80660
O653        O  0.45800526  0.95413041  0.37705702    -0.80700
C654        C  0.98141540  0.47429603  0.35172442     1.09030
C655        C  0.49468336  0.56094312  0.51920336     1.08910
C656        C  0.43604029  0.00253645  0.44965084     1.09050
C657        C  0.07155289  0.57531696  0.46840680     1.08930
O658        O  0.07306318  0.51069986  0.49075094    -0.80660
O659        O  0.44137540  0.94809973  0.55699897    -0.80740
O660        O  0.47867898  0.93535392  0.46615373    -0.80680
O661        O  0.02728656  0.54336941  0.60121324    -0.80660
O662        O  0.48995433  0.99488664  0.61400843    -0.80710
O663        O  0.02863741  0.95993750  0.44781831    -0.80670
O664        O  0.05766327  0.51604932  0.56650416    -0.80630
O665        O  0.43030252  0.94425748  0.47193015    -0.80700
Co666      Co  0.03476860  0.50345862  0.44598812     1.51530
Co667      Co  0.46363225  0.99494437  0.55357473     1.51690
Co668      Co  0.47291268  0.97178802  0.44525144     1.51570
Co669      Co  0.03378502  0.53386667  0.52566541     1.51470
O670        O  0.99855974  0.49370232  0.50758603    -1.42600
C671        C  0.07652587  0.51127159  0.54017818     1.08950
C672        C  0.42383673  0.93266608  0.51770210     1.09040
C673        C  0.00498329  0.93577891  0.46421499     1.08980
C674        C  0.51097585  0.02093676  0.63255821     1.08960
O675        O  0.44606859  0.70519294  0.05561467    -0.80660
O676        O  0.01769520  0.81475110  0.04350213    -0.80690
O677        O  0.02862876  0.73545855  0.13255250    -0.80690
O678        O  0.45028360  0.75294878  0.98266509    -0.80640
O679        O  0.01960477  0.77645270  0.12572302    -0.80760
O680        O  0.42492434  0.70293100  0.95403744    -0.80680
O681        O  0.97442752  0.78368346  0.99606072    -0.80660
O682        O  0.47567927  0.68454232  0.08442861    -0.80700
C683        C  0.44845706  0.68345403  0.08074456     1.09030
C684        C  0.99244851  0.81034075  0.01758940     1.08910
C685        C  0.02219253  0.75583472  0.15333643     1.09050
C686        C  0.42360570  0.72682805  0.97183419     1.08930
O687        O  0.48339396  0.72674259  0.90633407    -0.80660
O688        O  0.07732458  0.78087622  0.08327092    -0.80740
O689        O  0.01348121  0.69632476  0.98938620    -0.80680
O690        O  0.03333349  0.81018977  0.94660726    -0.80660
O691        O  0.06733356  0.80469403  0.99689253    -0.80710
O692        O  0.46301011  0.67419781  0.98060618    -0.80670
O693        O  0.48206496  0.77122876  0.89351534    -0.80630
O694        O  0.06275099  0.74012618  0.03296728    -0.80700
Co695      Co  0.46684633  0.71842584  0.98490854     1.51530
Co696      Co  0.04210850  0.79085623  0.06039709     1.51690
Co697      Co  0.02002718  0.71603891  0.05838516     1.51570
Co698      Co  0.49681515  0.76418987  0.95947624     1.51470
O699        O  0.00949289  0.74829918  0.02513338    -1.42600
C700        C  0.48351444  0.74807978  0.87435317     1.08950
C701        C  0.08463031  0.76483948  0.05297604     1.09040
C702        C  0.48789138  0.67126217  0.98666177     1.08980
C703        C  0.06203630  0.82114206  0.96447700     1.08960
O704        O  0.43534550  0.70023024  0.51116048    -0.80660
O705        O  0.04322671  0.82890592  0.55202137    -0.80690
O706        O  0.99793129  0.73034977  0.62900865    -0.80690
O707        O  0.44725898  0.76214986  0.48597172    -0.80640
O708        O  0.01767790  0.78090545  0.62276104    -0.80760
O709        O  0.43970141  0.73095030  0.42139118    -0.80680
O710        O  0.49284814  0.80527040  0.54173490    -0.80660
O711        O  0.46397657  0.68544059  0.56115303    -0.80700
C712        C  0.43691444  0.68250786  0.54599430     1.09030
C713        C  0.01788142  0.83084473  0.54697643     1.08910
C714        C  0.00370565  0.75598060  0.64935796     1.09050
C715        C  0.43067794  0.74738227  0.44664332     1.08930
O716        O  0.50114925  0.73357579  0.40658236    -0.80660
O717        O  0.07888954  0.80296183  0.59310518    -0.80740
O718        O  0.02398406  0.70852202  0.49888845    -0.80680
O719        O  0.03756519  0.81763011  0.45519444    -0.80660
O720        O  0.06276356  0.79342603  0.48710864    -0.80710
O721        O  0.47658772  0.68046793  0.46676013    -0.80670
O722        O  0.49173957  0.77323182  0.39652632    -0.80630
O723        O  0.05851741  0.75176834  0.57511510    -0.80700
Co724      Co  0.46877779  0.71725015  0.45935334     1.51530
Co725      Co  0.03907466  0.78479870  0.55394426     1.51690
Co726      Co  0.01001365  0.72217282  0.56100365     1.51570
Co727      Co  0.49227841  0.78709354  0.47308071     1.51470
O728        O  0.99868674  0.75304680  0.51364160    -1.42600
C729        C  0.50059623  0.75440829  0.37764035     1.08950
C730        C  0.08240988  0.77875719  0.58911595     1.09040
C731        C  0.50291204  0.68253045  0.48100594     1.08980
C732        C  0.06277735  0.81532588  0.45897752     1.08960
O733        O  0.21591146  0.53390203  0.05789759    -0.80660
O734        O  0.26574552  0.94664410  0.98707032    -0.80690
O735        O  0.18121687  0.96610925  0.92779679    -0.80690
O736        O  0.25094813  0.49062548  0.13050107    -0.80640
O737        O  0.20562621  0.94368153  0.97129250    -0.80760
O738        O  0.26422406  0.54087803  0.12955877    -0.80680
O739        O  0.25198619  0.94681642  0.06729052    -0.80660
O740        O  0.19136740  0.98400338  0.03224975    -0.80700
C741        C  0.19046895  0.50737261  0.05273162     1.09030
C742        C  0.25831000  0.93308972  0.03105517     1.08910
C743        C  0.18006201  0.94122171  0.94683299     1.09050
C744        C  0.25422218  0.51477485  0.15405899     1.08930
O745        O  0.30988697  0.56955245  0.04553652    -0.80660
O746        O  0.24971160  0.96000199  0.89457704    -0.80740
O747        O  0.21542964  0.53155607  0.95405470    -0.80680
O748        O  0.31301118  0.49632621  0.02773231    -0.80660
O749        O  0.29975572  0.00859111  0.94972283    -0.80710
O750        O  0.26443805  0.56447942  0.97690438    -0.80670
O751        O  0.31657930  0.53858127  0.10230506    -0.80630
O752        O  0.24347243  0.00183258  0.89930183    -0.80700
Co753      Co  0.26327444  0.54945147  0.05019937     1.51530
Co754      Co  0.25366380  0.97882484  0.96185629     1.51690
Co755      Co  0.21918138  0.99231753  0.97067459     1.51570
Co756      Co  0.28100828  0.49358411  0.07835871     1.51470
O757        O  0.25739782  0.50690554  0.02355529    -1.42600
C758        C  0.32728414  0.56554931  0.07977953     1.08950
C759        C  0.24844923  0.98242228  0.87110382     1.09040
C760        C  0.23843907  0.55952108  0.95514934     1.08980
C761        C  0.32039069  0.00713306  0.98102084     1.08960
O762        O  0.21824746  0.53108166  0.56873395    -0.80660
O763        O  0.24724961  0.93660919  0.54131301    -0.80690
O764        O  0.18668486  0.95955038  0.43556801    -0.80690
O765        O  0.28490953  0.49170081  0.62086300    -0.80640
O766        O  0.19959393  0.93401590  0.49165599    -0.80760
O767        O  0.25776029  0.51733743  0.62096999    -0.80680
O768        O  0.29766597  0.95973467  0.54224741    -0.80660
O769        O  0.19202440  0.98609586  0.52958585    -0.80700
C770        C  0.19179661  0.50657808  0.55942693     1.09030
C771        C  0.27166745  0.93415040  0.54283892     1.08910
C772        C  0.17984283  0.93333469  0.45779988     1.09050
C773        C  0.26906581  0.50197380  0.64521728     1.08930
O774        O  0.28553396  0.57537379  0.57546167    -0.80660
O775        O  0.23665501  0.96336200  0.39696030    -0.80740
O776        O  0.20667587  0.52748514  0.44644710    -0.80680
O777        O  0.31634594  0.51465981  0.47543631    -0.80660
O778        O  0.28921621  0.96592078  0.44720437    -0.80710
O779        O  0.25649490  0.55221388  0.47839244    -0.80670
O780        O  0.31086294  0.54854144  0.55950984    -0.80630
O781        O  0.25128733  0.01258559  0.41133818    -0.80700
Co782      Co  0.25955496  0.53266118  0.54824312     1.51530
Co783      Co  0.24342732  0.95171856  0.47182264     1.51690
Co784      Co  0.22284463  0.00008493  0.47218959     1.51570
Co785      Co  0.29881257  0.50282149  0.54673248     1.51470
O786        O  0.25164426  0.98982901  0.51585455    -1.42600
C787        C  0.31173629  0.57499035  0.56914903     1.08950
C788        C  0.24576000  0.99088975  0.37917951     1.09040
C789        C  0.23102490  0.55319792  0.46209354     1.08980
C790        C  0.31488054  0.99245234  0.44755672     1.08960
O791        O  0.19240190  0.70360773  0.00801221    -0.80660
O792        O  0.29036303  0.81534238  0.04256304    -0.80690
O793        O  0.23642047  0.73402567  0.07849956    -0.80690
O794        O  0.22116504  0.80505813  0.93030457    -0.80640
O795        O  0.28764623  0.76390537  0.09352180    -0.80760
O796        O  0.19686082  0.75397792  0.94712861    -0.80680
O797        O  0.23998818  0.79147861  0.02309920    -0.80660
O798        O  0.21145202  0.67330670  0.03885010    -0.80700
C799        C  0.18727816  0.67634462  0.02307612     1.09030
C800        C  0.26370494  0.81504559  0.04343039     1.08910
C801        C  0.25950810  0.74948865  0.11067974     1.09050
C802        C  0.19636734  0.78033766  0.94585853     1.08930
O803        O  0.22250119  0.73183516  0.86490450    -0.80660
O804        O  0.31671673  0.75229541  0.00273144    -0.80740
O805        O  0.25790697  0.69486281  0.96060277    -0.80680
O806        O  0.29017352  0.82590069  0.94575079    -0.80660
O807        O  0.31501161  0.79876567  0.95032501    -0.80710
O808        O  0.21396083  0.68222561  0.91913159    -0.80670
O809        O  0.25603736  0.78200492  0.87076330    -0.80630
O810        O  0.28344325  0.71279760  0.05049585    -0.80700
Co811      Co  0.21137143  0.72135432  0.93811084     1.51530
Co812      Co  0.30005462  0.78061157  0.01930969     1.51690
Co813      Co  0.24510125  0.71461158  0.01634612     1.51570
Co814      Co  0.24719890  0.78483679  0.94784792     1.51470
O815        O  0.25980338  0.75234624  0.97186015    -1.42600
C816        C  0.24154080  0.75692434  0.84336259     1.08950
C817        C  0.31005771  0.72740313  0.02743933     1.09040
C818        C  0.23646728  0.67646587  0.92954790     1.08980
C819        C  0.31655204  0.82514287  0.94731119     1.08960
O820        O  0.20224396  0.67894635  0.42025025    -0.80660
O821        O  0.22569588  0.78590935  0.48418780    -0.80690
O822        O  0.18659313  0.74357412  0.53571284    -0.80690
O823        O  0.24425796  0.76080872  0.36592083    -0.80640
O824        O  0.22284816  0.78014190  0.58996684    -0.80760
O825        O  0.25116394  0.71899279  0.36369310    -0.80680
O826        O  0.26618915  0.81310563  0.43819116    -0.80660
O827        O  0.18553746  0.71115045  0.44440732    -0.80700
C828        C  0.17999742  0.68624972  0.42118477     1.09030
C829        C  0.24467172  0.81198651  0.46600297     1.08910
C830        C  0.19432192  0.76587257  0.57004563     1.09050
C831        C  0.24529230  0.73906913  0.33958800     1.08930
O832        O  0.29559175  0.72664759  0.45349166    -0.80660
O833        O  0.26176018  0.75135542  0.59170455    -0.80740
O834        O  0.19929112  0.66881934  0.51353709    -0.80680
O835        O  0.30882756  0.79379929  0.48246759    -0.80660
O836        O  0.28504340  0.80660752  0.54232712    -0.80710
O837        O  0.24944892  0.69087432  0.51222433    -0.80670
O838        O  0.30314549  0.76207731  0.39447014    -0.80630
O839        O  0.21411352  0.71240636  0.59433597    -0.80700
Co840      Co  0.24966913  0.70586813  0.44069340     1.51530
Co841      Co  0.24291856  0.76673846  0.53685667     1.51690
Co842      Co  0.20143002  0.71222579  0.51693970     1.51570
Co843      Co  0.27564483  0.77779615  0.42590294     1.51470
O844        O  0.24693857  0.74183007  0.47863701    -1.42600
C845        C  0.31270061  0.74558182  0.41960108     1.08950
C846        C  0.23988438  0.73135997  0.61879441     1.09040
C847        C  0.22417435  0.66596039  0.51585275     1.08980
C848        C  0.30977130  0.81247650  0.51741685     1.08960
C849        C  0.24096058  0.73574437  0.67763041    -0.00680
C850        C  0.27060265  0.75251626  0.70596176    -0.12550
C851        C  0.27211952  0.76160892  0.75958938     0.01560
C852        C  0.24375100  0.75488038  0.78516838    -0.00770
C853        C  0.21448105  0.73877860  0.75664005    -0.12490
C854        C  0.21268592  0.72904883  0.70418112     0.01440
H855        H  0.29260439  0.75855247  0.68619511     0.14420
H856        H  0.19244672  0.73302944  0.77622431     0.14420
C857        C  0.18120456  0.71344660  0.67855702     0.36070
C858        C  0.30264157  0.77646600  0.78813195     0.35980
N859        N  0.15590150  0.70107689  0.65838183    -0.44270
N860        N  0.32707040  0.78825251  0.81121203    -0.44270
C861        C  0.25400631  0.74708710  0.16856638    -0.00680
C862        C  0.24563848  0.71813693  0.19309106    -0.12550
C863        C  0.24240146  0.71470425  0.24822239     0.01560
C864        C  0.24515886  0.74005203  0.28010724    -0.00770
C865        C  0.25264069  0.76879553  0.25488540    -0.12490
C866        C  0.25813524  0.77278296  0.20026082     0.01440
H867        H  0.24329170  0.69848936  0.16927715     0.14420
H868        H  0.25620327  0.78898163  0.27841880     0.14420
C869        C  0.26949607  0.80394911  0.17885676     0.36070
C870        C  0.23867712  0.68562161  0.27068060     0.35980
N871        N  0.27924946  0.82951537  0.16382428    -0.44270
N872        N  0.23670816  0.66257601  0.28820735    -0.44270
C873        C  0.26789570  0.90385398  0.52368001    -0.00680
C874        C  0.25462238  0.89408003  0.47191699    -0.12550
C875        C  0.24520330  0.86362929  0.45309461     0.01560
C876        C  0.24749411  0.84170825  0.48696357    -0.00770
C877        C  0.25803596  0.85064029  0.54016966    -0.12490
C878        C  0.26864155  0.88149491  0.55842848     0.01440
H879        H  0.25069970  0.90993595  0.44609728     0.14420
H880        H  0.25878678  0.83404883  0.56792363     0.14420
C881        C  0.27891806  0.88933487  0.61332131     0.36070
C882        C  0.23231971  0.85504486  0.39948295     0.35980
N883        N  0.28707318  0.89561949  0.65734470    -0.44270
N884        N  0.22190733  0.84810784  0.35658096    -0.44270
C885        C  0.22896650  0.58248332  0.47002377    -0.00680
C886        C  0.19909227  0.58015021  0.48025668    -0.12550
C887        C  0.19678816  0.60651897  0.49742803     0.01560
C888        C  0.22462421  0.63592099  0.50495655    -0.00770
C889        C  0.25442819  0.63802307  0.49459048    -0.12490
C890        C  0.25679454  0.61205626  0.47664295     0.01440
H891        H  0.17754348  0.55745124  0.47663908     0.14420
H892        H  0.27627795  0.66041517  0.49908346     0.14420
C893        C  0.28820286  0.61688275  0.46433725     0.36070
C894        C  0.16575196  0.60270554  0.50786933     0.35980
N895        N  0.31341773  0.62098029  0.45444165    -0.44270
N896        N  0.14108616  0.60018294  0.51690343    -0.44270
C897        C  0.25420343  0.98698103  0.81337515    -0.00680
C898        C  0.25140984  0.51150180  0.78821638    -0.12550
C899        C  0.25617458  0.51680761  0.73398683     0.01560
C900        C  0.26390935  0.49711394  0.70304967    -0.00770
C901        C  0.26707234  0.97277706  0.72822544    -0.12490
C902        C  0.26226557  0.96745597  0.78262623     0.01440
H903        H  0.24548196  0.52678837  0.81101561     0.14420
H904        H  0.27306631  0.95760897  0.70523360     0.14420
C905        C  0.26593424  0.94174804  0.80514099     0.36070
C906        C  0.25367626  0.54331934  0.71210809     0.35980
N907        N  0.26889593  0.92111534  0.82294044    -0.44270
N908        N  0.25158186  0.56454514  0.69486866    -0.44270
C909        C  0.24676419  0.99733901  0.32144220    -0.00680
C910        C  0.26712674  0.52807208  0.30331638    -0.12550
C911        C  0.26850127  0.53531953  0.24908699     0.01560
C912        C  0.24888103  0.51161162  0.21189888    -0.00770
C913        C  0.22722443  0.98147958  0.23056050    -0.12490
C914        C  0.22609304  0.97412717  0.28436937     0.01440
H915        H  0.28267088  0.54632673  0.33148804     0.14420
H916        H  0.21171731  0.96308243  0.20253324     0.14420
C917        C  0.20303400  0.94266862  0.30017038     0.36070
C918        C  0.29155392  0.56657963  0.23262328     0.35980
N919        N  0.18453979  0.91747230  0.31275915    -0.44270
N920        N  0.31005623  0.59162797  0.21941467    -0.44270
C921        C  0.26303543  0.84557631  0.05054194    -0.00680
C922        C  0.28776946  0.87244500  0.02795025    -0.12550
C923        C  0.28575739  0.90005036  0.01983654     0.01560
C924        C  0.26022006  0.90326259  0.04015117    -0.00770
C925        C  0.23649660  0.87730895  0.06730874    -0.12490
C926        C  0.23715128  0.84825952  0.07089845     0.01440
H927        H  0.30798634  0.87126156  0.01262209     0.14420
H928        H  0.21660867  0.87911295  0.08314257     0.14420
C929        C  0.21134820  0.82173327  0.09595629     0.36070
C930        C  0.30936999  0.92364419  0.98680181     0.35980
N931        N  0.19071614  0.80042991  0.11618204    -0.44270
N932        N  0.32780242  0.94140924  0.95827151    -0.44270
C933        C  0.23399351  0.58694162  0.93962271    -0.00680
C934        C  0.25303481  0.60829727  0.90066270    -0.12550
C935        C  0.25311785  0.63741226  0.89269999     0.01560
C936        C  0.23264091  0.64446736  0.92185452    -0.00770
C937        C  0.21280943  0.62236330  0.95787149    -0.12490
C938        C  0.21469541  0.59527845  0.96955122     0.01440
H939        H  0.26908287  0.60308202  0.87871738     0.14420
H940        H  0.19902409  0.62840570  0.98349399     0.14420
C941        C  0.20249003  0.58222335  0.02036540     0.36070
C942        C  0.27478244  0.65994664  0.85601696     0.35980
N943        N  0.19335283  0.57587008  0.06295422    -0.44270
N944        N  0.29210868  0.67814456  0.82661353    -0.44270
C945        C  0.34370232  0.60355346  0.56830215    -0.00680
C946        C  0.36603583  0.60122598  0.53655675    -0.12550
C947        C  0.39672057  0.62611911  0.53156346     0.01560
C948        C  0.40659757  0.65454236  0.55955353    -0.00770
C949        C  0.38451271  0.65736657  0.59171746    -0.12490
C950        C  0.35311873  0.63198942  0.59644447     0.01440
H951        H  0.35914327  0.57997594  0.51328403     0.14420
H952        H  0.39153358  0.67954701  0.61203600     0.14420
C953        C  0.33138622  0.63552913  0.63045806     0.36070
C954        C  0.41603811  0.62234858  0.49280198     0.35980
N955        N  0.31397080  0.63832958  0.65789731    -0.44270
N956        N  0.43002130  0.61815946  0.46024365    -0.44270
C957        C  0.09349883  0.84251888  0.44202716    -0.00680
C958        C  0.12139920  0.84499417  0.46547506    -0.12550
C959        C  0.14929945  0.87376452  0.46999269     0.01560
C960        C  0.15100183  0.90170018  0.44694789    -0.00770
C961        C  0.12419722  0.89846396  0.41694280    -0.12490
C962        C  0.09547217  0.86925767  0.41463045     0.01440
H963        H  0.12063717  0.82496210  0.48594423     0.14420
H964        H  0.12503856  0.91900088  0.39779441     0.14420
C965        C  0.06833359  0.86770406  0.38495340     0.36070
C966        C  0.17395505  0.87316760  0.50421447     0.35980
N967        N  0.04670742  0.86654723  0.36081499    -0.44270
N968        N  0.19223021  0.87137325  0.53343078    -0.44270
C969        C  0.40233892  0.75020384  0.43121711    -0.00680
C970        C  0.37845743  0.72670859  0.39866386    -0.12550
C971        C  0.34904253  0.72590383  0.39049544     0.01560
C972        C  0.34431669  0.74980583  0.41279939    -0.00770
C973        C  0.36897209  0.77489360  0.44056168    -0.12490
C974        C  0.39761958  0.77495906  0.45150067     0.01440
H975        H  0.38186186  0.70778370  0.38285537     0.14420
H976        H  0.36467973  0.79285944  0.45829972     0.14420
C977        C  0.41978676  0.79918427  0.48787625     0.36070
C978        C  0.32352902  0.69951899  0.36199064     0.35980
N979        N  0.43626482  0.81835710  0.51843464    -0.44270
N980        N  0.30314954  0.67825276  0.33924737    -0.44270
C981        C  0.11455243  0.78189909  0.58764042    -0.00680
C982        C  0.12324232  0.77713626  0.53791747    -0.12550
C983        C  0.15114252  0.77568055  0.53138685     0.01560
C984        C  0.17055229  0.77694264  0.57624900    -0.00770
C985        C  0.16285853  0.78336567  0.62643870    -0.12490
C986        C  0.13492528  0.78613731  0.63228446     0.01440
H987        H  0.10737413  0.77340505  0.50363895     0.14420
H988        H  0.17738487  0.78429767  0.66109418     0.14420
C989        C  0.12646525  0.79114360  0.68424402     0.36070
C990        C  0.15793405  0.77127425  0.47762258     0.35980
N991        N  0.11955990  0.79519580  0.72583991    -0.44270
N992        N  0.16267496  0.76755763  0.43428433    -0.44270
C993        C  0.48841700  0.74878254  0.81686729    -0.00680
C994        C  0.00927306  0.77817987  0.79470205    -0.12550
C995        C  0.01335645  0.78176763  0.74002549     0.01560
C996        C  0.99592429  0.75558270  0.70591173    -0.00770
C997        C  0.47433727  0.72629441  0.72824276    -0.12490
C998        C  0.47069645  0.72269051  0.78316678     0.01440
H999        H  0.02288669  0.79851513  0.82053046     0.14420
H1000       H  0.46074754  0.70580649  0.70276432     0.14420
C1001       C  0.44814243  0.69236452  0.80382212     0.36070
C1002       C  0.03692901  0.81208294  0.72077034     0.35980
N1003       N  0.43007307  0.66807847  0.82048034    -0.44270
N1004       N  0.05598470  0.83633232  0.70547382    -0.44270
C1005       C  0.01842629  0.75624599  0.21126321    -0.00680
C1006       C  0.50651211  0.72777664  0.23889281    -0.12550
C1007       C  0.50044689  0.72658501  0.29289004     0.01560
C1008       C  0.50713264  0.75460356  0.32077219    -0.00770
C1009       C  0.01938469  0.78310207  0.29335529    -0.12490
C1010       C  0.02505917  0.78424390  0.23922656     0.01440
H1011       H  0.50074540  0.70610312  0.21779652     0.14420
H1012       H  0.02459045  0.80462952  0.31435386     0.14420
C1013       C  0.03803278  0.81470986  0.21413404     0.36070
C1014       C  0.48533476  0.69587447  0.31738169     0.35980
N1015       N  0.04823529  0.83929509  0.19470180    -0.44270
N1016       N  0.47295355  0.67117868  0.33660416    -0.44270
C1017       C  0.35924915  0.59431358  0.09402353    -0.00680
C1018       C  0.36005262  0.62364092  0.10165625    -0.12550
C1019       C  0.38918037  0.65243495  0.10516893     0.01560
C1020       C  0.41855225  0.65331457  0.09568182    -0.00770
C1021       C  0.41810825  0.62384919  0.09363595    -0.12490
C1022       C  0.38911082  0.59473902  0.09450486     0.01440
H1023       H  0.33769756  0.62403184  0.10577999     0.14420
H1024       H  0.44045110  0.62342406  0.09027661     0.14420
C1025       C  0.39094593  0.56593173  0.09729660     0.36070
C1026       C  0.38899385  0.67985916  0.12635814     0.35980
N1027       N  0.39322835  0.54328719  0.10211602    -0.44270
N1028       N  0.38926717  0.70130264  0.14682357    -0.44270
C1029       C  0.14879251  0.91119733  0.94807278    -0.00680
C1030       C  0.13690332  0.89906431  0.99765440    -0.12550
C1031       C  0.10760712  0.87143029  0.00255406     0.01560
C1032       C  0.08917451  0.85411901  0.95708467    -0.00770
C1033       C  0.10054880  0.86671960  0.90691792    -0.12490
C1034       C  0.12999455  0.89517029  0.90222759     0.01440
H1035       H  0.15056441  0.91148592  0.03313851     0.14420
H1036       H  0.08728893  0.85378758  0.87157563     0.14420
C1037       C  0.14142806  0.90654761  0.85010822     0.36070
C1038       C  0.09712467  0.86130310  0.05564201     0.35980
N1039       N  0.15080204  0.91568941  0.80838086    -0.44270
N1040       N  0.08896165  0.85332859  0.09830150    -0.44270
C1041       C  0.39234220  0.72280535  0.98834953    -0.00680
C1042       C  0.39011598  0.73243612  0.03967363    -0.12550
C1043       C  0.36117695  0.72950250  0.05717560     0.01560
C1044       C  0.33359750  0.71612452  0.02353568    -0.00770
C1045       C  0.33533655  0.70436981  0.97362058    -0.12490
C1046       C  0.36435824  0.70776056  0.95572434     0.01440
H1047       H  0.41144688  0.74366259  0.06531987     0.14420
H1048       H  0.31475228  0.69549903  0.94633893     0.14420
C1049       C  0.36557759  0.69869227  0.90184158     0.36070
C1050       C  0.36096785  0.74319009  0.10771695     0.35980
N1051       N  0.36678343  0.69182359  0.85849469    -0.44270
N1052       N  0.36067398  0.75403445  0.14826034    -0.44270
C1053       C  0.16883299  0.78008220  0.97358957    -0.00680
C1054       C  0.14862720  0.75152155  0.99900881    -0.12550
C1055       C  0.12436379  0.74828545  0.03108972     0.01560
C1056       C  0.11747984  0.77327975  0.03706928    -0.00770
C1057       C  0.13770695  0.80247400  0.01314890    -0.12490
C1058       C  0.16368653  0.80621238  0.98229414     0.01440
H1059       H  0.15166493  0.73082745  0.99486506     0.14420
H1060       H  0.13241492  0.82180851  0.01641640     0.14420
C1061       C  0.18400763  0.83659068  0.95954259     0.36070
C1062       C  0.10563395  0.71785934  0.05534055     0.35980
N1063       N  0.20033499  0.86107603  0.94159352    -0.44270
N1064       N  0.09074591  0.69332817  0.07407234    -0.44270
C1065       C  0.33836272  0.84338540  0.52053322    -0.00680
C1066       C  0.35380050  0.85709853  0.56919845    -0.12550
C1067       C  0.38234468  0.88613384  0.57043553     0.01560
C1068       C  0.39490845  0.90169020  0.52224868    -0.00770
C1069       C  0.37870069  0.88767062  0.47425550    -0.12490
C1070       C  0.35097425  0.85919389  0.47285887     0.01440
H1071       H  0.34405067  0.84483939  0.60579722     0.14420
H1072       H  0.38757033  0.89893065  0.43657756     0.14420
C1073       C  0.33599056  0.84733624  0.42109413     0.36070
C1074       C  0.39821618  0.89892661  0.62106309     0.35980
N1075       N  0.32458488  0.83838935  0.37922463    -0.44270
N1076       N  0.41100419  0.90905257  0.66169617    -0.44270
C1077       C  0.09248938  0.60575409  0.44428715    -0.00680
C1078       C  0.10952817  0.60590197  0.40002545    -0.12550
C1079       C  0.13684452  0.63350245  0.38594057     0.01560
C1080       C  0.14628582  0.66151875  0.41506831    -0.00770
C1081       C  0.12540225  0.66229878  0.45235455    -0.12490
C1082       C  0.09950093  0.63452476  0.46887006     0.01440
H1083       H  0.10359874  0.58386922  0.38003801     0.14420
H1084       H  0.13168864  0.68382766  0.47433936     0.14420
C1085       C  0.08297988  0.63607061  0.51469961     0.36070
C1086       C  0.15544877  0.63184680  0.34364101     0.35980
N1087       N  0.07038141  0.63769215  0.55197317    -0.44270
N1088       N  0.16950683  0.62966759  0.30901956    -0.44270
C1089       C  0.34531402  0.99580758  0.42527454    -0.00680
C1090       C  0.37281013  0.52588572  0.42426577    -0.12550
C1091       C  0.40365797  0.52900248  0.42044455     0.01560
C1092       C  0.40780403  0.00215859  0.42194574    -0.00770
C1093       C  0.38048348  0.97259092  0.41498386    -0.12490
C1094       C  0.34957953  0.96935803  0.41418194     0.01440
H1095       H  0.37037844  0.54695429  0.42796216     0.14420
H1096       H  0.38322072  0.95159391  0.41343833     0.14420
C1097       C  0.32329021  0.93853266  0.40183527     0.36070
C1098       C  0.43036203  0.55930200  0.40973911     0.35980
N1099       N  0.30330696  0.91363103  0.38933241    -0.44270
N1100       N  0.45137998  0.58315725  0.39727771    -0.44270
C1101       C  0.10278912  0.50668042  0.56409698    -0.00680
C1102       C  0.10377921  0.97926442  0.55007255    -0.12550
C1103       C  0.13142940  0.97665561  0.55880543     0.01560
C1104       C  0.16046117  0.50357593  0.57470610    -0.00770
C1105       C  0.15877700  0.52998037  0.59424374    -0.12490
C1106       C  0.12967729  0.53099904  0.59116815     0.01440
H1107       H  0.08334056  0.96023386  0.52989750     0.14420
H1108       H  0.18035807  0.55044115  0.60905792     0.14420
C1109       C  0.12832908  0.55767263  0.61351682     0.36070
C1110       C  0.12910964  0.94611503  0.55026283     0.35980
N1111       N  0.12707621  0.57883633  0.63213361    -0.44270
N1112       N  0.12653142  0.92124076  0.54486365    -0.44270
C1113       C  0.00892503  0.90915926  0.48416726    -0.00680
C1114       C  0.02420932  0.91212655  0.53413055    -0.12550
C1115       C  0.02932373  0.88774637  0.55459248     0.01560
C1116       C  0.01759090  0.85934570  0.52582762    -0.00770
C1117       C  0.50230509  0.85658624  0.47572174    -0.12490
C1118       C  0.49792715  0.88114607  0.45482657     0.01440
H1119       H  0.03182248  0.93345633  0.55746050     0.14420
H1120       H  0.49298409  0.83478108  0.45310769     0.14420
C1121       C  0.48170566  0.87695734  0.40373186     0.36070
C1122       C  0.04580158  0.89207757  0.60536349     0.35980
N1123       N  0.46866332  0.87363905  0.36283676    -0.44270
N1124       N  0.05927373  0.89582400  0.64593353    -0.44270
C1125       C  0.49703246  0.59248994  0.51108084    -0.00680
C1126       C  0.01047042  0.60876871  0.46386396    -0.12550
C1127       C  0.01408204  0.63885612  0.45390310     0.01560
C1128       C  0.50468147  0.65345525  0.49182332    -0.00770
C1129       C  0.49303412  0.63821548  0.54003301    -0.12490
C1130       C  0.48889582  0.60798664  0.54986818     0.01440
H1131       H  0.01777101  0.59780001  0.43394797     0.14420
H1132       H  0.48656623  0.64970917  0.57010525     0.14420
C1133       C  0.47721363  0.59430289  0.60074879     0.36070
C1134       C  0.02725159  0.65414379  0.40458969     0.35980
N1135       N  0.46801739  0.58410637  0.64205607    -0.44270
N1136       N  0.03797175  0.66639121  0.36511058    -0.44270
C1137       C  0.51248819  0.02427563  0.69039590    -0.00680
C1138       C  0.03743998  0.02329126  0.72022022    -0.12550
C1139       C  0.03409285  0.01602603  0.77454496     0.01560
C1140       C  0.50568812  0.51015952  0.79903101    -0.00770
C1141       C  0.48143481  0.51221466  0.76959856    -0.12490
C1142       C  0.48432921  0.51869587  0.71572656     0.01440
H1143       H  0.05834135  0.02582762  0.70038887     0.14420
H1144       H  0.45963427  0.50784692  0.78864252     0.14420
C1145       C  0.45675359  0.51657382  0.68638701     0.36070
C1146       C  0.05855390  0.01196398  0.80314678     0.35980
N1147       N  0.43436019  0.51417644  0.66303502    -0.44270
N1148       N  0.07792891  0.00822686  0.82594006    -0.44270
C1149       C  0.98473672  0.97358627  0.18194936    -0.00680
C1150       C  0.47065398  0.48972986  0.20650332    -0.12550
C1151       C  0.46833685  0.48961284  0.26188179     0.01560
C1152       C  0.98015566  0.47311488  0.29350110    -0.00770
C1153       C  0.99294827  0.95602802  0.26939932    -0.12490
C1154       C  0.99534739  0.95596896  0.21443934     0.01440
H1155       H  0.46231542  0.50327148  0.18267550     0.14420
H1156       H  0.00191790  0.94323791  0.29396146     0.14420
C1157       C  0.01010538  0.93850995  0.19363220     0.36070
C1158       C  0.45452580  0.50715557  0.28544097     0.35980
N1159       N  0.02210567  0.92461892  0.17732357    -0.44270
N1160       N  0.44338956  0.52123761  0.30408533    -0.44430
C1161       C  0.40581576  0.90135215  0.00794353    -0.00680
C1162       C  0.38728378  0.90728909  0.96888819    -0.12550
C1163       C  0.35846170  0.88300122  0.94755900     0.01560
C1164       C  0.34719171  0.85221966  0.96610437    -0.00770
C1165       C  0.36526843  0.84641885  0.00604925    -0.12490
C1166       C  0.39431019  0.87052985  0.02676621     0.01440
H1167       H  0.39595287  0.93080874  0.95297778     0.14420
H1168       H  0.35660260  0.82281253  0.02162172     0.14420
C1169       C  0.41154392  0.86310684  0.06760224     0.36070
C1170       C  0.34184095  0.88976863  0.90482286     0.35980
N1171       N  0.42534473  0.85714740  0.10033937    -0.44270
N1172       N  0.32852822  0.89504526  0.87033377    -0.44270
C1173       C  0.15452523  0.64949725  0.01459614    -0.00680
C1174       C  0.14642224  0.63290908  0.96591089    -0.12550
C1175       C  0.11520137  0.60938268  0.95329681     0.01560
C1176       C  0.09074004  0.60315802  0.98825826    -0.00770
C1177       C  0.09832023  0.62068041  0.03577976    -0.12490
C1178       C  0.12978486  0.64399984  0.04883167     0.01440
H1179       H  0.16420615  0.63807118  0.93690192     0.14420
H1180       H  0.07985048  0.61507758  0.06386048     0.14420
C1181       C  0.13619310  0.66191990  0.09741396     0.36070
C1182       C  0.10916205  0.59120237  0.90516356     0.35980
N1183       N  0.14133779  0.67648496  0.13614548    -0.44270
N1184       N  0.10469678  0.57677033  0.86651070    -0.44270
C1185       C  0.41352194  0.02096065  0.94073227    -0.00680
C1186       C  0.39732456  0.53079108  0.90386069    -0.12550
C1187       C  0.36683691  0.52732861  0.91512732     0.01560
C1188       C  0.35288670  0.01443259  0.96426242    -0.00770
C1189       C  0.36986081  0.00543691  0.00023526    -0.12490
C1190       C  0.39891114  0.00789836  0.98915158     0.01440
H1191       H  0.40795668  0.54033156  0.86620164     0.14420
H1192       H  0.35982115  0.99474878  0.03772376     0.14420
C1193       C  0.41302190  0.99745073  0.03094522     0.36070
C1194       C  0.35053782  0.53683649  0.87589040     0.35980
N1195       N  0.42247180  0.98900964  0.06695960    -0.44270
N1196       N  0.33748085  0.54448557  0.84437003    -0.44270
C1197       C  0.15907957  0.50650822  0.05943083    -0.00680
C1198       C  0.14770601  0.50727776  0.11009662    -0.12550
C1199       C  0.11971160  0.51023680  0.11551012     0.01560
C1200       C  0.10467411  0.51549578  0.07028224    -0.00770
C1201       C  0.11827980  0.01791464  0.02106841    -0.12490
C1202       C  0.14296741  0.51089438  0.01467593     0.01440
H1203       H  0.16002805  0.50462326  0.14505308     0.14420
H1204       H  0.10667802  0.02144417  0.98575855     0.14420
C1205       C  0.14971091  0.00753002  0.96062201     0.36070
C1206       C  0.10614993  0.50658649  0.16688631     0.35980
N1207       N  0.15295250  0.00491062  0.91603653    -0.44270
N1208       N  0.09515233  0.50365800  0.20804807    -0.44270
C1209       C  0.49190422  0.89297009  0.94951878    -0.00680
C1210       C  0.46265777  0.86587572  0.95899237    -0.12550
C1211       C  0.46159001  0.83891107  0.98276530     0.01560
C1212       C  0.99026708  0.83879171  0.99896714    -0.00770
C1213       C  0.01939706  0.86574104  0.98803716    -0.12490
C1214       C  0.02052613  0.89195401  0.96232231     0.01440
H1215       H  0.44041955  0.86621850  0.95011678     0.14420
H1216       H  0.04181864  0.86613932  0.99813566     0.14420
C1217       C  0.05170593  0.91751331  0.94986498     0.36070
C1218       C  0.43047361  0.81302703  0.99254727     0.35980
N1219       N  0.07672593  0.93783819  0.93990801    -0.44270
N1220       N  0.40447701  0.79376313  0.99933533    -0.44270
C1221       C  0.99238418  0.58905570  0.04914165    -0.00680
C1222       C  0.46631491  0.58559729  0.01627037    -0.12550
C1223       C  0.46396106  0.61146968  0.99521251     0.01560
C1224       C  0.48768044  0.64219273  0.00845165    -0.00770
C1225       C  0.01146599  0.64578295  0.04721410    -0.12490
C1226       C  0.01360474  0.61968222  0.06817230     0.01440
H1227       H  0.44802874  0.56259235  0.00628911     0.14420
H1228       H  0.02819156  0.66916066  0.06204289     0.14420
C1229       C  0.03625104  0.62483639  0.11131684     0.36070
C1230       C  0.43761537  0.60605243  0.95917743     0.35980
N1231       N  0.05402796  0.62899533  0.14664069    -0.44270
N1232       N  0.41674218  0.60241409  0.93021391    -0.44270
O1233       O  0.53487545  0.07116421  0.96249127    -0.80660
O1234       O  0.51643223  0.44806942  0.95580152    -0.80690
O1235       O  0.55643335  0.01977870  0.08913554    -0.80690
O1236       O  0.97898877  0.47681535  0.87009685    -0.80640
O1237       O  0.55495403  0.48539216  0.03086903    -0.80760
O1238       O  0.01297124  0.02630599  0.88782958    -0.80680
O1239       O  0.96707820  0.42564928  0.93279230    -0.80660
O1240       O  0.55842047  0.05048833  0.00858671    -0.80700
C1241       C  0.56012698  0.07365749  0.98429613     1.09030
C1242       C  0.99249743  0.42376316  0.93967523     1.08910
C1243       C  0.57017970  0.50634483  0.06561680     1.09050
C1244       C  0.00014994  0.00362720  0.85554598     1.08930
O1245       O  0.97044695  0.04566674  0.92325614    -0.80660
O1246       O  0.50543692  0.46498449  0.10302111    -0.80740
O1247       O  0.52246897  0.06190067  0.08089248    -0.80680
O1248       O  0.94370221  0.45439569  0.01106224    -0.80660
O1249       O  0.96230503  0.42305730  0.02911629    -0.80710
O1250       O  0.98133797  0.03638282  0.02656483    -0.80670
O1251       O  0.94324061  0.49458203  0.93889969    -0.80630
O1252       O  0.48588010  0.99711036  0.09710189    -0.80700
Co1253     Co  0.99570165  0.02804937  0.95662840     1.51530
Co1254     Co  0.50956876  0.45767837  0.02703575     1.51690
Co1255     Co  0.52039499  0.02379761  0.04859260     1.51570
Co1256     Co  0.96213678  0.46534985  0.94226874     1.51470
O1257       O  0.50504459  0.99354399  0.98793005    -1.42600
C1258       C  0.94381979  0.02087601  0.93013426     1.08950
C1259       C  0.49117782  0.47799035  0.12417677     1.09040
C1260       C  0.49851870  0.06121914  0.05494660     1.08980
C1261       C  0.93823363  0.42738654  0.02229511     1.08960
O1262       O  0.50697316  0.99574577  0.37620169    -0.80660
O1263       O  0.97969383  0.04242563  0.55629608    -0.80690
O1264       O  0.96001337  0.50469081  0.42574015    -0.80690
O1265       O  0.57130344  0.07283750  0.51878584    -0.80640
O1266       O  0.93270425  0.99484878  0.49799645    -0.80760
O1267       O  0.55280139  0.05150285  0.43810489    -0.80680
O1268       O  0.51006087  0.05298693  0.48993852    -0.80660
O1269       O  0.95800379  0.45413098  0.37705651    -0.80700
C1270       C  0.48141665  0.97429595  0.35172509     1.09030
C1271       C  0.99468490  0.06094270  0.51920370     1.08910
C1272       C  0.93603900  0.50253675  0.44965036     1.09050
C1273       C  0.57155475  0.07531613  0.46840868     1.08930
O1274       O  0.57306371  0.01069795  0.49075169    -0.80660
O1275       O  0.94137466  0.44810046  0.55699885    -0.80740
O1276       O  0.97867804  0.43535432  0.46615221    -0.80680
O1277       O  0.52728768  0.04336842  0.60121400    -0.80660
O1278       O  0.98995332  0.49488763  0.61400828    -0.80710
O1279       O  0.52863734  0.45993853  0.44782087    -0.80670
O1280       O  0.55766415  0.01604792  0.56650497    -0.80630
O1281       O  0.93030162  0.44425805  0.47193006    -0.80700
Co1282     Co  0.53476963  0.00345787  0.44598842     1.51530
Co1283     Co  0.96363117  0.49494505  0.55357444     1.51690
Co1284     Co  0.97291161  0.47178860  0.44525081     1.51570
Co1285     Co  0.53378637  0.03386578  0.52566631     1.51470
O1286       O  0.49856081  0.99370167  0.50758647    -1.42600
C1287       C  0.57652646  0.01126975  0.54017895     1.08950
C1288       C  0.92383608  0.43266665  0.51770203     1.09040
C1289       C  0.50498261  0.43577940  0.46421464     1.08980
C1290       C  0.01097492  0.52093782  0.63255773     1.08960
O1291       O  0.94606887  0.20519264  0.05561138    -0.80660
O1292       O  0.51769459  0.31475047  0.04349917    -0.80690
O1293       O  0.52862929  0.23545811  0.13254784    -0.80690
O1294       O  0.95028365  0.25294869  0.98266168    -0.80640
O1295       O  0.51960411  0.27645151  0.12571905    -0.80760
O1296       O  0.92492404  0.20293076  0.95403456    -0.80680
O1297       O  0.47442725  0.28368306  0.99605682    -0.80660
O1298       O  0.97567982  0.18454212  0.08442449    -0.80700
C1299       C  0.94845760  0.18345385  0.08074122     1.09030
C1300       C  0.49244805  0.31034025  0.01758606     1.08910
C1301       C  0.52219245  0.25583376  0.15333216     1.09050
C1302       C  0.92360564  0.22682793  0.97183142     1.08930
O1303       O  0.98339344  0.22674231  0.90633011    -0.80660
O1304       O  0.57732429  0.28087587  0.08326704    -0.80740
O1305       O  0.51348123  0.19632455  0.98938127    -0.80680
O1306       O  0.53333316  0.31018989  0.94660401    -0.80660
O1307       O  0.56733321  0.30469407  0.99688915    -0.80710
O1308       O  0.96301009  0.17419749  0.98060239    -0.80670
O1309       O  0.98206483  0.27122869  0.89351163    -0.80630
O1310       O  0.56275125  0.24012640  0.03296209    -0.80700
Co1311     Co  0.96684620  0.21842553  0.98490493     1.51530
Co1312     Co  0.54210807  0.29085573  0.06039353     1.51690
Co1313     Co  0.52002754  0.21603871  0.05838034     1.51570
Co1314     Co  0.99681513  0.26418977  0.95947232     1.51470
O1315       O  0.50949287  0.24829886  0.02512914    -1.42600
C1316       C  0.98351400  0.24807959  0.87434928     1.08950
C1317       C  0.58463034  0.26483954  0.05297179     1.09040
C1318       C  0.98789147  0.17126195  0.98665756     1.08980
C1319       C  0.56203592  0.32114231  0.96447411     1.08960
O1320       O  0.93534449  0.20022946  0.51115669    -0.80660
O1321       O  0.54322596  0.32890511  0.55201682    -0.80690
O1322       O  0.49793155  0.23034910  0.62900481    -0.80690
O1323       O  0.94725884  0.26214895  0.48596792    -0.80640
O1324       O  0.51767623  0.28090444  0.62275626    -0.80760
O1325       O  0.93970078  0.23094980  0.42138695    -0.80680
O1326       O  0.99284763  0.30526991  0.54172964    -0.80660
O1327       O  0.96397589  0.18544052  0.56115017    -0.80700
C1328       C  0.93691368  0.18250753  0.54599119     1.09030
C1329       C  0.51788071  0.33084397  0.54697147     1.08910
C1330       C  0.50370488  0.25597970  0.64935367     1.09050
C1331       C  0.93067768  0.24738192  0.44663942     1.08930
O1332       O  0.00114782  0.23357362  0.40657805    -0.80660
O1333       O  0.57888818  0.30296040  0.59310167    -0.80740
O1334       O  0.52398303  0.20852042  0.49888421    -0.80680
O1335       O  0.53756471  0.31762911  0.45518969    -0.80660
O1336       O  0.56276277  0.29342494  0.48710488    -0.80710
O1337       O  0.97658655  0.18046669  0.46675811    -0.80670
O1338       O  0.99173930  0.27323039  0.39652188    -0.80630
O1339       O  0.55851700  0.25176719  0.57510998    -0.80700
Co1340     Co  0.96877649  0.21724872  0.45934919     1.51530
Co1341     Co  0.53907353  0.28479765  0.55394008     1.51690
Co1342     Co  0.51001315  0.22217191  0.56099937     1.51570
Co1343     Co  0.99227805  0.28709258  0.47307598     1.51470
O1344       O  0.49868600  0.25304557  0.51363685    -1.42600
C1345       C  0.00059553  0.25440648  0.37763609     1.08950
C1346       C  0.58240904  0.27875609  0.58911178     1.09040
C1347       C  0.00291080  0.18252895  0.48100322     1.08980
C1348       C  0.56277692  0.31532501  0.45897393     1.08960
O1349       O  0.71591190  0.03390132  0.05789914    -0.80660
O1350       O  0.76574466  0.44664448  0.98706790    -0.80690
O1351       O  0.68121596  0.46611015  0.92779528    -0.80690
O1352       O  0.75094934  0.99062547  0.13050316    -0.80640
O1353       O  0.70562548  0.44368224  0.97129005    -0.80760
O1354       O  0.76422480  0.04087789  0.12956039    -0.80680
O1355       O  0.75198525  0.44681652  0.06728815    -0.80660
O1356       O  0.69136678  0.48400406  0.03224832    -0.80700
C1357       C  0.69046945  0.00737186  0.05273293     1.09030
C1358       C  0.75830913  0.43308995  0.03105264     1.08910
C1359       C  0.68006119  0.44122254  0.94683101     1.09050
C1360       C  0.75422322  0.01477483  0.15406086     1.08930
O1361       O  0.80988744  0.06955221  0.04553778    -0.80660
O1362       O  0.74971097  0.46000282  0.89457476    -0.80740
O1363       O  0.71543010  0.03155530  0.95405594    -0.80680
O1364       O  0.81301198  0.99632599  0.02773375    -0.80660
O1365       O  0.79975523  0.50859154  0.94972111    -0.80710
O1366       O  0.76443841  0.06447876  0.97690580    -0.80670
O1367       O  0.81658029  0.03858127  0.10230618    -0.80630
O1368       O  0.74347144  0.50183318  0.89929996    -0.80700
Co1369     Co  0.76327493  0.04945103  0.05020088     1.51530
Co1370     Co  0.75366319  0.47882545  0.96185416     1.51690
Co1371     Co  0.71918060  0.49231815  0.97067295     1.51570
Co1372     Co  0.78100926  0.99358401  0.07836045     1.51470
O1373       O  0.75739849  0.00690512  0.02355709    -1.42600
C1374       C  0.82728489  0.06554921  0.07978043     1.08950
C1375       C  0.74844818  0.48242294  0.87110169     1.09040
C1376       C  0.73843943  0.05952037  0.95515073     1.08980
C1377       C  0.82039006  0.50713335  0.98101935     1.08960
O1378       O  0.71824793  0.03108002  0.56873674    -0.80660
O1379       O  0.74724772  0.43661006  0.54131237    -0.80690
O1380       O  0.68668349  0.45955105  0.43556621    -0.80690
O1381       O  0.78491136  0.99170041  0.62086486    -0.80640
O1382       O  0.69959268  0.43401769  0.49165588    -0.80760
O1383       O  0.75776106  0.01733595  0.62097224    -0.80680
O1384       O  0.79766395  0.45973457  0.54224627    -0.80660
O1385       O  0.69202351  0.48609758  0.52958349    -0.80700
C1386       C  0.69179725  0.00657630  0.55942946     1.09030
C1387       C  0.77166516  0.43415060  0.54283835     1.08910
C1388       C  0.67984147  0.43333575  0.45779949     1.09050
C1389       C  0.76906729  0.00197292  0.64521938     1.08930
O1390       O  0.78553415  0.07537262  0.57546519    -0.80660
O1391       O  0.73665338  0.46336209  0.39695880    -0.80740
O1392       O  0.70667656  0.02748436  0.44645067    -0.80680
O1393       O  0.81634736  0.01466017  0.47543795    -0.80660
O1394       O  0.78921434  0.46592038  0.44720318    -0.80710
O1395       O  0.75649564  0.05221330  0.47839567    -0.80670
O1396       O  0.81086375  0.04854106  0.55951159    -0.80630
O1397       O  0.75128632  0.51258585  0.41133583    -0.80700
Co1398     Co  0.75955568  0.03266010  0.54824583     1.51530
Co1399     Co  0.74342566  0.45171909  0.47182162     1.51690
Co1400     Co  0.72284363  0.50008582  0.47218710     1.51570
Co1401     Co  0.79881404  0.00282135  0.54673410     1.51470
O1402       O  0.75164315  0.48982993  0.51585258    -1.42600
C1403       C  0.81173660  0.07498968  0.56915124     1.08950
C1404       C  0.74575870  0.49088980  0.37917753     1.09040
C1405       C  0.73102556  0.05319722  0.46209689     1.08980
C1406       C  0.81487887  0.49245182  0.44755525     1.08960
O1407       O  0.69240243  0.20360764  0.00801210    -0.80660
O1408       O  0.79036312  0.31534298  0.04256108    -0.80690
O1409       O  0.73642098  0.23402633  0.07849911    -0.80690
O1410       O  0.72116509  0.30505746  0.93030217    -0.80640
O1411       O  0.78764670  0.26390645  0.09352121    -0.80760
O1412       O  0.69686102  0.25397736  0.94712744    -0.80680
O1413       O  0.73998826  0.29147879  0.02309751    -0.80660
O1414       O  0.71145275  0.17330703  0.03885113    -0.80700
C1415       C  0.68727882  0.17634467  0.02307657     1.09030
C1416       C  0.76370493  0.31504603  0.04342828     1.08910
C1417       C  0.75950857  0.24948966  0.11067915     1.09050
C1418       C  0.69636749  0.28033708  0.94585663     1.08930
O1419       O  0.72250150  0.23183430  0.86490402    -0.80660
O1420       O  0.81671738  0.25229606  0.00273156    -0.80740
O1421       O  0.75790758  0.19486264  0.96060378    -0.80680
O1422       O  0.79017354  0.32590045  0.94574868    -0.80660
O1423       O  0.81501158  0.29876544  0.95032356    -0.80710
O1424       O  0.71396151  0.18222515  0.91913213    -0.80670
O1425       O  0.75603755  0.28200411  0.87076213    -0.80630
O1426       O  0.78344406  0.21279836  0.05049636    -0.80700
Co1427     Co  0.71137185  0.22135386  0.93811050     1.51530
Co1428     Co  0.80005494  0.28061208  0.01930879     1.51690
Co1429     Co  0.74510183  0.21461182  0.01634637     1.51570
Co1430     Co  0.74719906  0.28483643  0.94784648     1.51470
O1431       O  0.75980375  0.25234616  0.97185962    -1.42600
C1432       C  0.74154101  0.25692339  0.84336180     1.08950
C1433       C  0.81005847  0.22740387  0.02743964     1.09040
C1434       C  0.73646795  0.17646548  0.92954904     1.08980
C1435       C  0.81655206  0.32514264  0.94730928     1.08960
O1436       O  0.70224492  0.17894672  0.42024892    -0.80660
O1437       O  0.72569595  0.28590959  0.48418688    -0.80690
O1438       O  0.68659312  0.24357403  0.53571129    -0.80690
O1439       O  0.74425846  0.26081027  0.36592034    -0.80640
O1440       O  0.72284787  0.28014184  0.58996574    -0.80760
O1441       O  0.75116442  0.21899430  0.36369197    -0.80680
O1442       O  0.76618976  0.31310682  0.43819208    -0.80660
O1443       O  0.68553819  0.21115064  0.44440575    -0.80700
C1444       C  0.67999819  0.18624979  0.42118370     1.09030
C1445       C  0.74467173  0.31198709  0.46600305     1.08910
C1446       C  0.69432169  0.26587239  0.57004425     1.09050
C1447       C  0.74529271  0.23907070  0.33958726     1.08930
O1448       O  0.79559276  0.22664915  0.45348956    -0.80660
O1449       O  0.76176014  0.25135558  0.59170371    -0.80740
O1450       O  0.69929231  0.16881973  0.51353578    -0.80680
O1451       O  0.80882757  0.29379943  0.48246798    -0.80660
O1452       O  0.78504331  0.30660779  0.54232698    -0.80710
O1453       O  0.74945021  0.19087470  0.51222216    -0.80670
O1454       O  0.80314605  0.26207906  0.39446867    -0.80630
O1455       O  0.71411358  0.21240636  0.59433472    -0.80700
Co1456     Co  0.74967003  0.20586910  0.44069176     1.51530
Co1457     Co  0.74291855  0.26673866  0.53685582     1.51690
Co1458     Co  0.70143038  0.21222589  0.51693837     1.51570
Co1459     Co  0.77564512  0.27779711  0.42590287     1.51470
O1460       O  0.74693894  0.24183055  0.47863619    -1.42600
C1461       C  0.81270138  0.24558352  0.41959890     1.08950
C1462       C  0.73988438  0.23135990  0.61879331     1.09040
C1463       C  0.72417560  0.16596083  0.51585128     1.08980
C1464       C  0.80977130  0.31247669  0.51741711     1.08960
C1465       C  0.74096061  0.23574385  0.67762938    -0.00680
C1466       C  0.77060271  0.25251575  0.70596064    -0.12550
C1467       C  0.77211961  0.26160815  0.75958839     0.01560
C1468       C  0.74375107  0.25487926  0.78516763    -0.00770
C1469       C  0.71448108  0.23877734  0.75663949    -0.12490
C1470       C  0.71268593  0.22904788  0.70418038     0.01440
H1471       H  0.79260445  0.25855223  0.68619377     0.14420
H1472       H  0.69244675  0.23302793  0.77622396     0.14420
C1473       C  0.68120455  0.21344561  0.67855639     0.36070
C1474       C  0.80264171  0.27646533  0.78813082     0.35980
N1475       N  0.65590146  0.20107587  0.65838127    -0.44270
N1476       N  0.82707058  0.28825190  0.81121079    -0.44270
C1477       C  0.75400672  0.24708836  0.16856573    -0.00680
C1478       C  0.74563840  0.21813813  0.19309051    -0.12550
C1479       C  0.74240127  0.21470555  0.24822178     0.01560
C1480       C  0.74515911  0.24005357  0.28010652    -0.00770
C1481       C  0.75264138  0.26879714  0.25488458    -0.12490
C1482       C  0.75813596  0.27278441  0.20025997     0.01440
H1483       H  0.74329131  0.19849039  0.16927671     0.14420
H1484       H  0.75620425  0.28898337  0.27841791     0.14420
C1485       C  0.76949698  0.30395050  0.17885554     0.36070
C1486       C  0.73867638  0.18562273  0.27068006     0.35980
N1487       N  0.77925046  0.32951667  0.16382252    -0.44270
N1488       N  0.73670701  0.16257699  0.28820689    -0.44270
C1489       C  0.76789265  0.40385375  0.52368000    -0.00680
C1490       C  0.75461806  0.39407905  0.47191787    -0.12550
C1491       C  0.74519995  0.36362847  0.45309558     0.01560
C1492       C  0.74749301  0.34170834  0.48696392    -0.00770
C1493       C  0.75803559  0.35064090  0.54016962    -0.12490
C1494       C  0.76864025  0.38149541  0.55842824     0.01440
H1495       H  0.75069452  0.40993457  0.44609841     0.14420
H1496       H  0.75878767  0.33404991  0.56792339     0.14420
C1497       C  0.77891768  0.38933598  0.61332060     0.36070
C1498       C  0.73231572  0.35504346  0.39948438     0.35980
N1499       N  0.78707348  0.39562110  0.65734363    -0.44270
N1500       N  0.72190288  0.34810596  0.35658272    -0.44270
C1501       C  0.72896722  0.08248275  0.47002641    -0.00680
C1502       C  0.69909317  0.08014984  0.48026020    -0.12550
C1503       C  0.69678928  0.10651895  0.49743039     0.01560
C1504       C  0.72462537  0.13592119  0.50495656    -0.00770
C1505       C  0.75442918  0.13802304  0.49458984    -0.12490
C1506       C  0.75679532  0.11205582  0.47664379     0.01440
H1507       H  0.67754438  0.05745077  0.47664422     0.14420
H1508       H  0.77627896  0.16041525  0.49908119     0.14420
C1509       C  0.78820346  0.11688202  0.46433762     0.36070
C1510       C  0.66575332  0.10270566  0.50787324     0.35980
N1511       N  0.81341819  0.12097931  0.45444164    -0.44270
N1512       N  0.64108777  0.10018326  0.51690868    -0.44270
C1513       C  0.75420187  0.48698158  0.81337284    -0.00680
C1514       C  0.75141136  0.01150116  0.78821829    -0.12550
C1515       C  0.75617632  0.01680697  0.73398882     0.01560
C1516       C  0.76391122  0.99711330  0.70305189    -0.00770
C1517       C  0.76707016  0.47277748  0.72822273    -0.12490
C1518       C  0.76226337  0.46745622  0.78262346     0.01440
H1519       H  0.74548320  0.02678762  0.81101724     0.14420
H1520       H  0.77306380  0.45760923  0.70523063     0.14420
C1521       C  0.76593122  0.44174769  0.80513760     0.36070
C1522       C  0.75367813  0.04331874  0.71210996     0.35980
N1523       N  0.76889220  0.42111447  0.82293651    -0.44270
N1524       N  0.75158385  0.06454459  0.69487048    -0.44270
C1525       C  0.74676301  0.49733892  0.32144016    -0.00680
C1526       C  0.76712775  0.02807228  0.30331829    -0.12550
C1527       C  0.76850228  0.03531966  0.24908885     0.01560
C1528       C  0.74888208  0.01161170  0.21190078    -0.00770
C1529       C  0.72722326  0.48147957  0.23055844    -0.12490
C1530       C  0.72609178  0.47412714  0.28436733     0.01440
H1531       H  0.78267185  0.04632695  0.33148995     0.14420
H1532       H  0.71171609  0.46308245  0.20253115     0.14420
C1533       C  0.70303254  0.44266869  0.30016839     0.36070
C1534       C  0.79155491  0.06657974  0.23262503     0.35980
N1535       N  0.68453814  0.41747245  0.31275721    -0.44270
N1536       N  0.81005722  0.09162805  0.21941632    -0.44270
C1537       C  0.76303514  0.34557668  0.05053922    -0.00680
C1538       C  0.78776878  0.37244530  0.02794666    -0.12550
C1539       C  0.78575648  0.40005056  0.01983295     0.01560
C1540       C  0.76021930  0.40326280  0.04014831    -0.00770
C1541       C  0.73649616  0.37730919  0.06730639    -0.12490
C1542       C  0.73715105  0.34825984  0.07089618     0.01440
H1543       H  0.80798557  0.37126189  0.01261798     0.14420
H1544       H  0.71660831  0.37911314  0.08314070     0.14420
C1545       C  0.71134823  0.32173363  0.09595455     0.36070
C1546       C  0.80936870  0.42364432  0.98679762     0.35980
N1547       N  0.69071635  0.30043030  0.11618071    -0.44270
N1548       N  0.82780079  0.44140939  0.95826688    -0.44270
C1549       C  0.73399383  0.08694091  0.93962417    -0.00680
C1550       C  0.75303496  0.10829644  0.90066387    -0.12550
C1551       C  0.75311814  0.13741151  0.89270123     0.01560
C1552       C  0.73264163  0.14446692  0.92185637    -0.00770
C1553       C  0.71281048  0.12236310  0.95787394    -0.12490
C1554       C  0.71469609  0.09527799  0.96955317     0.01440
H1555       H  0.76908275  0.10308101  0.87871817     0.14420
H1556       H  0.69902547  0.12840571  0.98349684     0.14420
C1557       C  0.70249042  0.08222260  0.02036705     0.36070
C1558       C  0.77478244  0.15994565  0.85601761     0.35980
N1559       N  0.69335295  0.07586911  0.06295568    -0.44270
N1560       N  0.79210842  0.17814339  0.82661369    -0.44270
C1561       C  0.84370214  0.10355310  0.56830198    -0.00680
C1562       C  0.86603375  0.10122676  0.53655013    -0.12550
C1563       C  0.89671828  0.12611991  0.53155527     0.01560
C1564       C  0.90659702  0.15454189  0.55955041    -0.00770
C1565       C  0.88451396  0.15736505  0.59172047    -0.12490
C1566       C  0.85312007  0.13198793  0.59644875     0.01440
H1567       H  0.85913972  0.07997762  0.51327395     0.14420
H1568       H  0.89153611  0.17954465  0.61204287     0.14420
C1569       C  0.83138924  0.13552645  0.63046813     0.36070
C1570       C  0.91603370  0.12235081  0.49278787     0.35980
N1571       N  0.81397516  0.13832599  0.65791188    -0.44270
N1572       N  0.93001510  0.11816298  0.46022478    -0.44270
C1573       C  0.59349871  0.34251859  0.44202619    -0.00680
C1574       C  0.62139835  0.34499536  0.46547994    -0.12550
C1575       C  0.64929798  0.37376613  0.46999834     0.01560
C1576       C  0.65100067  0.40170088  0.44694891    -0.00770
C1577       C  0.62419688  0.39846332  0.41693958    -0.12490
C1578       C  0.59547232  0.36925655  0.41462628     0.01440
H1579       H  0.62063598  0.32496422  0.48595284     0.14420
H1580       H  0.62503846  0.41899953  0.39778800     0.14420
C1581       C  0.56833441  0.36770159  0.38494501     0.36070
C1582       C  0.67395257  0.37317056  0.50422486     0.35980
N1583       N  0.54670874  0.36654374  0.36080347    -0.44270
N1584       N  0.69222712  0.37137747  0.53344438    -0.44270
C1585       C  0.90233914  0.25020446  0.43121357    -0.00680
C1586       C  0.87845805  0.22671072  0.39865763    -0.12550
C1587       C  0.84904346  0.22590664  0.39048934     0.01560
C1588       C  0.84431749  0.24980776  0.41279663    -0.00770
C1589       C  0.86897262  0.27489429  0.44056164    -0.12490
C1590       C  0.89761984  0.27495911  0.45150003     0.01440
H1591       H  0.88186251  0.20778638  0.38284667     0.14420
H1592       H  0.86468018  0.29285950  0.45830201     0.14420
C1593       C  0.91978675  0.29918303  0.48787776     0.36070
C1594       C  0.82353036  0.19952330  0.36198104     0.35980
N1595       N  0.93626469  0.31835484  0.51843770    -0.44270
N1596       N  0.80315126  0.17825828  0.33923478    -0.44270
C1597       C  0.61455183  0.28189850  0.58763719    -0.00680
C1598       C  0.62324285  0.27713703  0.53791430    -0.12550
C1599       C  0.65114315  0.27568139  0.53138453     0.01560
C1600       C  0.67055199  0.27694237  0.57624732    -0.00770
C1601       C  0.66285701  0.28336388  0.62643714    -0.12490
C1602       C  0.63492353  0.28613520  0.63228220     0.01440
H1603       H  0.60737536  0.27340664  0.50363509     0.14420
H1604       H  0.67738248  0.28429475  0.66109314     0.14420
C1605       C  0.62646192  0.29113926  0.68424192     0.36070
C1606       C  0.65793558  0.27127604  0.47762036     0.35980
N1607       N  0.61955524  0.29518956  0.72583795    -0.44270
N1608       N  0.66267707  0.26756018  0.43428207    -0.44270
C1609       C  0.98841632  0.24878231  0.81686322    -0.00680
C1610       C  0.50927059  0.27817979  0.79469707    -0.12550
C1611       C  0.51335395  0.28176724  0.74002048     0.01560
C1612       C  0.49592335  0.25558166  0.70590742    -0.00770
C1613       C  0.97433788  0.22629335  0.72823918    -0.12490
C1614       C  0.97069720  0.22268967  0.78316326     0.01440
H1615       H  0.52288313  0.29851560  0.82052486     0.14420
H1616       H  0.96074921  0.20580497  0.70276122     0.14420
C1617       C  0.94814489  0.19236315  0.80381917     0.36070
C1618       C  0.53692504  0.31208303  0.72076468     0.35980
N1619       N  0.93007696  0.16807666  0.82047784    -0.44270
N1620       N  0.55597963  0.33633278  0.70546768    -0.44270
C1621       C  0.51842630  0.25624478  0.21125897    -0.00680
C1622       C  0.00651336  0.22777564  0.23888877    -0.12550
C1623       C  0.00044816  0.22658374  0.29288605     0.01560
C1624       C  0.00713248  0.25460194  0.32076807    -0.00770
C1625       C  0.51938342  0.28310024  0.29335094    -0.12490
C1626       C  0.52505807  0.28424235  0.23922229     0.01440
H1627       H  0.00074765  0.20610236  0.21779254     0.14420
H1628       H  0.52458816  0.30462742  0.31434936     0.14420
C1629       C  0.53803072  0.31470827  0.21412979     0.36070
C1630       C  0.98533775  0.19587321  0.31737788     0.35980
N1631       N  0.54823250  0.33929341  0.19469736    -0.44270
N1632       N  0.97295803  0.17117739  0.33660047    -0.44270
C1633       C  0.85924997  0.09431357  0.09402362    -0.00680
C1634       C  0.86005348  0.12364098  0.10165560    -0.12550
C1635       C  0.88918121  0.15243503  0.10516719     0.01560
C1636       C  0.91855299  0.15331456  0.09567962    -0.00770
C1637       C  0.91810903  0.12384917  0.09363456    -0.12490
C1638       C  0.88911164  0.09473901  0.09450466     0.01440
H1639       H  0.83769845  0.12403193  0.10577960     0.14420
H1640       H  0.94045185  0.12342402  0.09027496     0.14420
C1641       C  0.89094682  0.06593178  0.09729757     0.36070
C1642       C  0.88899483  0.17985946  0.12635573     0.35980
N1643       N  0.89322933  0.04328734  0.10211800    -0.44270
N1644       N  0.88926827  0.20130312  0.14682066    -0.44270
C1645       C  0.64879171  0.41119810  0.94807071    -0.00680
C1646       C  0.63690342  0.39906406  0.99765231    -0.12550
C1647       C  0.60760733  0.37142992  0.00255197     0.01560
C1648       C  0.58917405  0.35411941  0.95708249    -0.00770
C1649       C  0.60054736  0.36672108  0.90691587    -0.12490
C1650       C  0.62999293  0.39517198  0.90222562     0.01440
H1651       H  0.65056508  0.41148502  0.03313642     0.14420
H1652       H  0.58728688  0.35378978  0.87157347     0.14420
C1653       C  0.64142533  0.40655052  0.85010622     0.36070
C1654       C  0.59712561  0.36130194  0.05564001     0.35980
N1655       N  0.65079842  0.41569332  0.80837882    -0.44270
N1656       N  0.58896315  0.35332681  0.09829955    -0.44270
C1657       C  0.89234236  0.22280541  0.98834772    -0.00680
C1658       C  0.89011685  0.23243684  0.03967170    -0.12550
C1659       C  0.86117810  0.22950355  0.05717447     0.01560
C1660       C  0.83359820  0.21612519  0.02353557    -0.00770
C1661       C  0.83533659  0.20436991  0.97362059    -0.12490
C1662       C  0.86435801  0.20776038  0.95572349     0.01440
H1663       H  0.91144807  0.24366356  0.06531719     0.14420
H1664       H  0.81475201  0.19549889  0.94633961     0.14420
C1665       C  0.86557670  0.19869165  0.90184074     0.36070
C1666       C  0.86096974  0.24319176  0.10771559     0.35980
N1667       N  0.86678206  0.19182265  0.85849383    -0.44270
N1668       N  0.86067648  0.25403663  0.14825882    -0.44270
C1669       C  0.66883329  0.28008186  0.97358764    -0.00680
C1670       C  0.64862781  0.25152157  0.99900814    -0.12550
C1671       C  0.62436432  0.24828576  0.03108856     0.01560
C1672       C  0.61748006  0.27327994  0.03706633    -0.00770
C1673       C  0.63770699  0.30247390  0.01314505    -0.12490
C1674       C  0.66368666  0.30621206  0.98229083     0.01440
H1675       H  0.65166582  0.23082755  0.99486572     0.14420
H1676       H  0.63241473  0.32180832  0.01641135     0.14420
C1677       C  0.68400772  0.33659013  0.95953853     0.36070
C1678       C  0.60563460  0.21786003  0.05534063     0.35980
N1679       N  0.70033508  0.36107531  0.94158893    -0.44270
N1680       N  0.59074664  0.19332920  0.07407355    -0.44270
C1681       C  0.83836270  0.34338557  0.52053336    -0.00680
C1682       C  0.85380007  0.35709910  0.56919863    -0.12550
C1683       C  0.88234411  0.38613452  0.57043566     0.01560
C1684       C  0.89490814  0.40169055  0.52224870    -0.00770
C1685       C  0.87870090  0.38767048  0.47425546    -0.12490
C1686       C  0.85097454  0.35919372  0.47285888     0.01440
H1687       H  0.84405000  0.34484022  0.60579749     0.14420
H1688       H  0.88757082  0.39893022  0.43657742     0.14420
C1689       C  0.83599114  0.34733577  0.42109407     0.36070
C1690       C  0.89821515  0.39892779  0.62106331     0.35980
N1691       N  0.82458563  0.33838864  0.37922456    -0.44270
N1692       N  0.91100279  0.40905415  0.66169646    -0.44270
C1693       C  0.59249124  0.10575338  0.44428948    -0.00680
C1694       C  0.60952948  0.10590148  0.40002688    -0.12550
C1695       C  0.63684528  0.13350216  0.38594105     0.01560
C1696       C  0.64628671  0.16151838  0.41506904    -0.00770
C1697       C  0.62540375  0.16229809  0.45235686    -0.12490
C1698       C  0.59950284  0.13452392  0.46887292     0.01440
H1699       H  0.60359991  0.08386883  0.38003897     0.14420
H1700       H  0.63169027  0.18382689  0.47434200     0.14420
C1701       C  0.58298200  0.13606952  0.51470299     0.36070
C1702       C  0.65544866  0.13184691  0.34363971     0.35980
N1703       N  0.57038345  0.13769071  0.55197671    -0.44270
N1704       N  0.66950587  0.12966793  0.30901669    -0.44270
C1705       C  0.84531222  0.49580669  0.42527322    -0.00680
C1706       C  0.87281216  0.02588668  0.42426909    -0.12550
C1707       C  0.90365991  0.02900327  0.42044767     0.01560
C1708       C  0.90780241  0.50215809  0.42194497    -0.00770
C1709       C  0.88048195  0.47259015  0.41498517    -0.12490
C1710       C  0.84957790  0.46935698  0.41418309     0.01440
H1711       H  0.87038070  0.04695526  0.42796749     0.14420
H1712       H  0.88321938  0.45159319  0.41344154     0.14420
C1713       C  0.82328867  0.43853109  0.40183934     0.36070
C1714       C  0.93036438  0.05930301  0.40974511     0.35980
N1715       N  0.80330548  0.41362893  0.38933893    -0.44270
N1716       N  0.95138283  0.08315849  0.39728594    -0.44270
C1717       C  0.60278960  0.00667839  0.56409779    -0.00680
C1718       C  0.60377873  0.47926648  0.55007260    -0.12550
C1719       C  0.63142897  0.47665772  0.55880488     0.01560
C1720       C  0.66046161  0.00357388  0.57470809    -0.00770
C1721       C  0.65877719  0.02997809  0.59424617    -0.12490
C1722       C  0.62967748  0.03099674  0.59117001     0.01440
H1723       H  0.58333988  0.46023575  0.52989828     0.14420
H1724       H  0.68035810  0.05043873  0.60906119     0.14420
C1725       C  0.62832902  0.05767007  0.61351923     0.36070
C1726       C  0.62910908  0.44611705  0.55026267     0.35980
N1727       N  0.62707593  0.07883353  0.63213654    -0.44270
N1728       N  0.62653076  0.42124272  0.54486371    -0.44270
C1729       C  0.50892390  0.40915921  0.48416590    -0.00680
C1730       C  0.52420898  0.41212617  0.53412833    -0.12550
C1731       C  0.52932356  0.38774582  0.55458892     0.01560
C1732       C  0.51759009  0.35934518  0.52582370    -0.00770
C1733       C  0.00230402  0.35658633  0.47571830    -0.12490
C1734       C  0.99792582  0.38114633  0.45482440     0.01440
H1735       H  0.53182252  0.43345582  0.55745881     0.14420
H1736       H  0.99298292  0.33478132  0.45310370     0.14420
C1737       C  0.98170388  0.37695796  0.40373020     0.36070
C1738       C  0.54580239  0.39207695  0.60535894     0.35980
N1739       N  0.96866116  0.37363997  0.36283555    -0.44270
N1740       N  0.55927543  0.39582354  0.64592814    -0.44270
C1741       C  0.99703348  0.09248931  0.51108056    -0.00680
C1742       C  0.51047462  0.10876951  0.46386626    -0.12550
C1743       C  0.51408509  0.13885647  0.45390468     0.01560
C1744       C  0.00467980  0.15345355  0.49182141    -0.00770
C1745       C  0.99302872  0.13821201  0.54002844    -0.12490
C1746       C  0.98889197  0.10798386  0.54986451     0.01440
H1747       H  0.51777868  0.09780246  0.43395278     0.14420
H1748       H  0.98655721  0.14970393  0.57009833     0.14420
C1749       C  0.97720596  0.09429853  0.60074266     0.36070
C1750       C  0.52725790  0.15414568  0.40459381     0.35980
N1751       N  0.96800656  0.08410080  0.64204798    -0.44270
N1752       N  0.53798052  0.16639432  0.36511668    -0.44270
C1753       C  0.01248762  0.52427684  0.69039546    -0.00680
C1754       C  0.53743936  0.52329197  0.72021940    -0.12550
C1755       C  0.53409233  0.51602667  0.77454413     0.01560
C1756       C  0.00568845  0.01015860  0.79903149    -0.00770
C1757       C  0.98143498  0.01221320  0.76959865    -0.12490
C1758       C  0.98432945  0.01869425  0.71572663     0.01440
H1759       H  0.55834054  0.52582804  0.70038777     0.14420
H1760       H  0.95963427  0.00784517  0.78864233     0.14420
C1761       C  0.95675362  0.01657142  0.68638668     0.36070
C1762       C  0.55855334  0.51196439  0.80314561     0.35980
N1763       N  0.93435998  0.01417322  0.66303438    -0.44270
N1764       N  0.57792836  0.50822717  0.82593865    -0.44270
C1765       C  0.48473551  0.47358564  0.18194857    -0.00680
C1766       C  0.97065522  0.98973042  0.20650439    -0.12550
C1767       C  0.96833811  0.98961323  0.26188287     0.01560
C1768       C  0.48015697  0.97311506  0.29350179    -0.00770
C1769       C  0.49294708  0.45602770  0.26939879    -0.12490
C1770       C  0.49534610  0.45596837  0.21443881     0.01440
H1771       H  0.96231663  0.00327209  0.18267676     0.14420
H1772       H  0.50191670  0.44323766  0.29396113     0.14420
C1773       C  0.51010383  0.43850907  0.19363187     0.36070
C1774       C  0.95452705  0.00715588  0.28544236     0.35980
N1775       N  0.52210388  0.42461778  0.17732340    -0.44270
N1776       N  0.94339081  0.02123785  0.30408697    -0.44430
C1777       C  0.90581559  0.40135191  0.00794211    -0.00680
C1778       C  0.88728350  0.40728895  0.96888711    -0.12550
C1779       C  0.85846152  0.38300107  0.94755763     0.01560
C1780       C  0.84719170  0.35221944  0.96610249    -0.00770
C1781       C  0.86526857  0.34641852  0.00604696    -0.12490
C1782       C  0.89431027  0.37052950  0.02676406     0.01440
H1783       H  0.89595243  0.43080868  0.95297716     0.14420
H1784       H  0.85660293  0.32281213  0.02161900     0.14420
C1785       C  0.91154424  0.36310628  0.06759939     0.36070
C1786       C  0.84184072  0.38976856  0.90482167     0.35980
N1787       N  0.92534522  0.35714664  0.10033591    -0.44270
N1788       N  0.82852795  0.39504522  0.87033268    -0.44270
C1789       C  0.65452597  0.14949711  0.01459652    -0.00680
C1790       C  0.64642330  0.13290858  0.96591165    -0.12550
C1791       C  0.61520246  0.10938220  0.95329718     0.01560
C1792       C  0.59074083  0.10315786  0.98825781    -0.00770
C1793       C  0.59832075  0.12068050  0.03577901    -0.12490
C1794       C  0.62978534  0.14399993  0.04883132     0.01440
H1795       H  0.66420741  0.13807039  0.93690320     0.14420
H1796       H  0.57985082  0.11507784  0.06385927     0.14420
C1797       C  0.63619330  0.16192014  0.09741336     0.36070
C1798       C  0.60916349  0.09120167  0.90516432     0.35980
N1799       N  0.64133780  0.17648531  0.13614470    -0.44270
N1800       N  0.60469856  0.07676949  0.86651173    -0.44270
C1801       C  0.91352151  0.52096087  0.94073204    -0.00680
C1802       C  0.89732462  0.03079039  0.90386076    -0.12550
C1803       C  0.86683700  0.02732787  0.91512772     0.01560
C1804       C  0.85288612  0.51443275  0.96426133    -0.00770
C1805       C  0.86985982  0.50543646  0.00023402    -0.12490
C1806       C  0.89891034  0.50789816  0.98915084     0.01440
H1807       H  0.90795641  0.04033045  0.86620128     0.14420
H1808       H  0.85981980  0.49474788  0.03772205     0.14420
C1809       C  0.91302083  0.49745018  0.03094440     0.36070
C1810       C  0.85053741  0.03683499  0.87589049     0.35980
N1811       N  0.92247056  0.48900881  0.06695863    -0.44270
N1812       N  0.83748006  0.04448345  0.84436982    -0.44270
C1813       C  0.65908000  0.00650739  0.05943176    -0.00680
C1814       C  0.64770651  0.00727747  0.11009738    -0.12550
C1815       C  0.61971216  0.01023669  0.11551043     0.01560
C1816       C  0.60467463  0.01549523  0.07028217    -0.00770
C1817       C  0.61827942  0.51791583  0.02106832    -0.12490
C1818       C  0.64296778  0.01089310  0.01467651     0.01440
H1819       H  0.66002862  0.00462335  0.14505410     0.14420
H1820       H  0.60667763  0.52144566  0.98575874     0.14420
C1821       C  0.64971055  0.50753171  0.96062114     0.36070
C1822       C  0.60615066  0.00658708  0.16688661     0.35980
N1823       N  0.65295218  0.50491260  0.91603557    -0.44270
N1824       N  0.59515318  0.00365915  0.20804836    -0.44270
C1825       C  0.99190436  0.39297043  0.94951745    -0.00680
C1826       C  0.96265780  0.36587575  0.95898904    -0.12550
C1827       C  0.96158977  0.33891075  0.98276106     0.01560
C1828       C  0.49026666  0.33879135  0.99896430    -0.00770
C1829       C  0.51939679  0.36574106  0.98803643    -0.12490
C1830       C  0.52052617  0.39195434  0.96232219     0.01440
H1831       H  0.94041964  0.36621844  0.95011232     0.14420
H1832       H  0.54181830  0.36613942  0.99813599     0.14420
C1833       C  0.55170619  0.41751394  0.94986672     0.36070
C1834       C  0.93047315  0.31302617  0.99253990     0.35980
N1835       N  0.57672638  0.43783904  0.93991123    -0.44270
N1836       N  0.90447632  0.29376185  0.99932501    -0.44270
C1837       C  0.49238486  0.08905613  0.04914002    -0.00680
C1838       C  0.96631481  0.08559679  0.01626882    -0.12550
C1839       C  0.96396130  0.11146957  0.99521031     0.01560
C1840       C  0.98768075  0.14219268  0.00844809    -0.00770
C1841       C  0.51146673  0.14578335  0.04721017    -0.12490
C1842       C  0.51360550  0.11968277  0.06816936     0.01440
H1843       H  0.94803139  0.06259545  0.00629059     0.14420
H1844       H  0.52819231  0.16916102  0.06203787     0.14420
C1845       C  0.53625186  0.12483746  0.11131406     0.36070
C1846       C  0.93761522  0.10605181  0.95917568     0.35980
N1847       N  0.55402878  0.12899680  0.14663807    -0.44270
N1848       N  0.91674182  0.10241323  0.93021250    -0.44270
O1849       O  0.53487477  0.57116427  0.96249159    -0.80660
O1850       O  0.51643224  0.94806912  0.95580202    -0.80690
O1851       O  0.55643241  0.51977847  0.08913556    -0.80690
O1852       O  0.97898901  0.97681488  0.87009761    -0.80640
O1853       O  0.55495441  0.98539210  0.03086902    -0.80760
O1854       O  0.01297083  0.52630641  0.88782946    -0.80680
O1855       O  0.96707815  0.92564898  0.93279348    -0.80660
O1856       O  0.55841977  0.55048849  0.00858732    -0.80700
C1857       C  0.56012625  0.57365762  0.98429669     1.09030
C1858       C  0.99249736  0.92376282  0.93967618     1.08910
C1859       C  0.57018033  0.00634476  0.06561674     1.09050
C1860       C  0.00014960  0.50362779  0.85554551     1.08930
O1861       O  0.97044651  0.54566690  0.92325641    -0.80660
O1862       O  0.50543761  0.96498482  0.10302154    -0.80740
O1863       O  0.52246809  0.56189998  0.08089358    -0.80680
O1864       O  0.94370255  0.95439591  0.01106311    -0.80660
O1865       O  0.96230526  0.92305745  0.02911742    -0.80710
O1866       O  0.98133732  0.53638260  0.02656507    -0.80670
O1867       O  0.94324107  0.99458195  0.93890002    -0.80630
O1868       O  0.48587897  0.49710964  0.09710100    -0.80700
Co1869     Co  0.99570113  0.52804941  0.95662842     1.51530
Co1870     Co  0.50956909  0.95767840  0.02703626     1.51690
Co1871     Co  0.52039409  0.52379734  0.04859242     1.51570
Co1872     Co  0.96213705  0.96534972  0.94226952     1.51470
O1873       O  0.50504425  0.49354401  0.98792960    -1.42600
C1874       C  0.94381935  0.52087615  0.93013424     1.08950
C1875       C  0.49117885  0.97799094  0.12417747     1.09040
C1876       C  0.49851804  0.56121873  0.05494753     1.08980
C1877       C  0.93823390  0.92738676  0.02229627     1.08960
O1878       O  0.50697249  0.49574512  0.37620080    -0.80660
O1879       O  0.97969246  0.54242615  0.55629586    -0.80690
O1880       O  0.96001451  0.00469028  0.42574041    -0.80690
O1881       O  0.57130179  0.57283860  0.51878388    -0.80640
O1882       O  0.93270304  0.49484904  0.49799613    -0.80760
O1883       O  0.55279948  0.55150341  0.43810329    -0.80680
O1884       O  0.51005898  0.55298726  0.48993769    -0.80660
O1885       O  0.95800531  0.95413036  0.37705711    -0.80700
C1886       C  0.48141544  0.47429602  0.35172436     1.09030
C1887       C  0.99468337  0.56094316  0.51920334     1.08910
C1888       C  0.93604030  0.00253653  0.44965072     1.09050
C1889       C  0.57155286  0.57531694  0.46840664     1.08930
O1890       O  0.57306340  0.51070014  0.49075103    -0.80660
O1891       O  0.94137531  0.94809984  0.55699898    -0.80740
O1892       O  0.97867895  0.93535399  0.46615410    -0.80680
O1893       O  0.52728660  0.54336943  0.60121323    -0.80660
O1894       O  0.98995425  0.99488672  0.61400845    -0.80710
O1895       O  0.52863758  0.95993751  0.44781873    -0.80670
O1896       O  0.55766329  0.51604932  0.56650420    -0.80630
O1897       O  0.93030246  0.94425756  0.47193015    -0.80700
Co1898     Co  0.53476872  0.50345863  0.44598828     1.51530
Co1899     Co  0.96363221  0.99494448  0.55357471     1.51690
Co1900     Co  0.97291265  0.97178804  0.44525153     1.51570
Co1901     Co  0.53378503  0.53386666  0.52566540     1.51470
O1902       O  0.49855978  0.49370229  0.50758603    -1.42600
C1903       C  0.57652601  0.51127175  0.54017826     1.08950
C1904       C  0.92383665  0.93266618  0.51770211     1.09040
C1905       C  0.50498336  0.93577887  0.46421501     1.08980
C1906       C  0.01097581  0.02093682  0.63255823     1.08960
O1907       O  0.94606857  0.70519294  0.05561460    -0.80660
O1908       O  0.51769520  0.81475109  0.04350215    -0.80690
O1909       O  0.52862877  0.73545854  0.13255253    -0.80690
O1910       O  0.95028358  0.75294880  0.98266506    -0.80640
O1911       O  0.51960477  0.77645269  0.12572305    -0.80760
O1912       O  0.92492433  0.70293103  0.95403737    -0.80680
O1913       O  0.47442753  0.78368344  0.99606073    -0.80660
O1914       O  0.97567925  0.68454233  0.08442858    -0.80700
C1915       C  0.94845704  0.68345404  0.08074450     1.09030
C1916       C  0.49244851  0.81034074  0.01758940     1.08910
C1917       C  0.52219253  0.75583471  0.15333646     1.09050
C1918       C  0.92360569  0.72682807  0.97183414     1.08930
O1919       O  0.98339396  0.72674262  0.90633402    -0.80660
O1920       O  0.57732458  0.78087623  0.08327097    -0.80740
O1921       O  0.51348123  0.69632475  0.98938625    -0.80680
O1922       O  0.53333350  0.81018975  0.94660727    -0.80660
O1923       O  0.56733357  0.80469404  0.99689258    -0.80710
O1924       O  0.96301008  0.67419782  0.98060612    -0.80670
O1925       O  0.98206495  0.77122880  0.89351532    -0.80630
O1926       O  0.56275102  0.74012619  0.03296733    -0.80700
Co1927     Co  0.96684632  0.71842586  0.98490848     1.51530
Co1928     Co  0.54210851  0.79085623  0.06039713     1.51690
Co1929     Co  0.52002720  0.71603890  0.05838520     1.51570
Co1930     Co  0.99681513  0.76418989  0.95947621     1.51470
O1931       O  0.50949291  0.74829917  0.02513341    -1.42600
C1932       C  0.98351445  0.74807983  0.87435314     1.08950
C1933       C  0.58463033  0.76483949  0.05297609     1.09040
C1934       C  0.98789136  0.67126218  0.98666173     1.08980
C1935       C  0.56203632  0.82114206  0.96447702     1.08960
O1936       O  0.93534556  0.70023032  0.51116050    -0.80660
O1937       O  0.54322664  0.82890583  0.55202148    -0.80690
O1938       O  0.49793125  0.73034966  0.62900866    -0.80690
O1939       O  0.94725902  0.76214995  0.48597170    -0.80640
O1940       O  0.51767781  0.78090533  0.62276106    -0.80760
O1941       O  0.93970145  0.73095036  0.42139120    -0.80680
O1942       O  0.99284821  0.80527051  0.54173483    -0.80660
O1943       O  0.96397663  0.68544068  0.56115307    -0.80700
C1944       C  0.93691450  0.68250794  0.54599432     1.09030
C1945       C  0.51788135  0.83084463  0.54697653     1.08910
C1946       C  0.50370558  0.75598048  0.64935798     1.09050
C1947       C  0.93067797  0.74738233  0.44664333     1.08930
O1948       O  0.00114930  0.73357585  0.40658237    -0.80660
O1949       O  0.57888946  0.80296172  0.59310528    -0.80740
O1950       O  0.52398400  0.70852195  0.49888839    -0.80680
O1951       O  0.53756516  0.81763007  0.45519453    -0.80660
O1952       O  0.56276353  0.79342599  0.48710872    -0.80710
O1953       O  0.97658778  0.68046801  0.46676018    -0.80670
O1954       O  0.99173959  0.77323185  0.39652629    -0.80630
O1955       O  0.55851736  0.75176825  0.57511508    -0.80700
Co1956     Co  0.96877784  0.71725022  0.45935336     1.51530
Co1957     Co  0.53907460  0.78479861  0.55394431     1.51690
Co1958     Co  0.51001359  0.72217272  0.56100363     1.51570
Co1959     Co  0.99227845  0.78709360  0.47308066     1.51470
O1960       O  0.49868669  0.75304672  0.51364161    -1.42600
C1961       C  0.00059626  0.75440833  0.37764034     1.08950
C1962       C  0.58240981  0.77875709  0.58911599     1.09040
C1963       C  0.00291209  0.68253052  0.48100599     1.08980
C1964       C  0.56277732  0.81532586  0.45897764     1.08960
O1965       O  0.71591145  0.53390204  0.05789754    -0.80660
O1966       O  0.76574555  0.94664412  0.98707024    -0.80690
O1967       O  0.68121688  0.96610925  0.92779669    -0.80690
O1968       O  0.75094812  0.49062548  0.13050104    -0.80640
O1969       O  0.70562623  0.94368153  0.97129240    -0.80760
O1970       O  0.76422405  0.54087803  0.12955872    -0.80680
O1971       O  0.75198620  0.94681644  0.06729043    -0.80660
O1972       O  0.69136741  0.98400337  0.03224965    -0.80700
C1973       C  0.69046894  0.50737262  0.05273159     1.09030
C1974       C  0.75831001  0.93308974  0.03105509     1.08910
C1975       C  0.68006203  0.94122171  0.94683290     1.09050
C1976       C  0.75422217  0.51477486  0.15405895     1.08930
O1977       O  0.80988695  0.56955245  0.04553646    -0.80660
O1978       O  0.74971163  0.96000201  0.89457694    -0.80740
O1979       O  0.71542962  0.53155608  0.95405466    -0.80680
O1980       O  0.81301115  0.49632621  0.02773226    -0.80660
O1981       O  0.79975573  0.00859113  0.94972275    -0.80710
O1982       O  0.76443803  0.56447942  0.97690432    -0.80670
O1983       O  0.81657928  0.53858128  0.10230501    -0.80630
O1984       O  0.74347245  0.00183259  0.89930173    -0.80700
Co1985     Co  0.76327442  0.54945147  0.05019931     1.51530
Co1986     Co  0.75366382  0.97882485  0.96185620     1.51690
Co1987     Co  0.71918139  0.99231753  0.97067449     1.51570
Co1988     Co  0.78100826  0.49358411  0.07835867     1.51470
O1989       O  0.75739780  0.50690554  0.02355524    -1.42600
C1990       C  0.82728413  0.56554931  0.07977948     1.08950
C1991       C  0.74844926  0.98242230  0.87110372     1.09040
C1992       C  0.73843905  0.55952108  0.95514929     1.08980
C1993       C  0.82039071  0.00713309  0.98102077     1.08960
O1994       O  0.71824757  0.53108179  0.56873399    -0.80660
O1995       O  0.74724968  0.93660926  0.54131290    -0.80690
O1996       O  0.68668484  0.95955040  0.43556805    -0.80690
O1997       O  0.78490959  0.49170087  0.62086297    -0.80640
O1998       O  0.69959398  0.93401593  0.49165596    -0.80760
O1999       O  0.75776037  0.51733751  0.62096997    -0.80680
O2000       O  0.79766604  0.95973475  0.54224724    -0.80660
O2001       O  0.69202445  0.98609590  0.52958591    -0.80700
C2002       C  0.69179671  0.50657821  0.55942701     1.09030
C2003       C  0.77166753  0.93415047  0.54283877     1.08910
C2004       C  0.67984285  0.93333471  0.45779992     1.09050
C2005       C  0.76906588  0.50197387  0.64521725     1.08930
O2006       O  0.78553405  0.57537386  0.57546166    -0.80660
O2007       O  0.73665500  0.96336205  0.39696022    -0.80740
O2008       O  0.70667591  0.52748523  0.44644714    -0.80680
O2009       O  0.81634598  0.51465986  0.47543627    -0.80660
O2010       O  0.78921624  0.96592087  0.44720421    -0.80710
O2011       O  0.75649496  0.55221397  0.47839243    -0.80670
O2012       O  0.81086302  0.54854151  0.55950982    -0.80630
O2013       O  0.75128729  0.01258563  0.41133810    -0.80700
Co2014     Co  0.75955504  0.53266127  0.54824311     1.51530
Co2015     Co  0.74342736  0.95171862  0.47182254     1.51690
Co2016     Co  0.72284463  0.00008497  0.47218958     1.51570
Co2017     Co  0.79881263  0.50282155  0.54673245     1.51470
O2018       O  0.75164431  0.98982908  0.51585447    -1.42600
C2019       C  0.81173637  0.57499042  0.56914903     1.08950
C2020       C  0.74575996  0.99088980  0.37917943     1.09040
C2021       C  0.73102495  0.55319800  0.46209355     1.08980
C2022       C  0.81488057  0.99245243  0.44755656     1.08960
O2023       O  0.69240190  0.70360773  0.00801217    -0.80660
O2024       O  0.79036303  0.81534239  0.04256302    -0.80690
O2025       O  0.73642046  0.73402569  0.07849953    -0.80690
O2026       O  0.72116504  0.80505815  0.93030457    -0.80640
O2027       O  0.78764623  0.76390537  0.09352176    -0.80760
O2028       O  0.69686082  0.75397793  0.94712861    -0.80680
O2029       O  0.73998818  0.79147862  0.02309919    -0.80660
O2030       O  0.71145202  0.67330671  0.03885008    -0.80700
C2031       C  0.68727816  0.67634463  0.02307609     1.09030
C2032       C  0.76370495  0.81504561  0.04343037     1.08910
C2033       C  0.75950810  0.74948866  0.11067971     1.09050
C2034       C  0.69636734  0.78033767  0.94585855     1.08930
O2035       O  0.72250118  0.73183519  0.86490446    -0.80660
O2036       O  0.81671672  0.75229542  0.00273140    -0.80740
O2037       O  0.75790695  0.69486282  0.96060273    -0.80680
O2038       O  0.79017352  0.82590071  0.94575077    -0.80660
O2039       O  0.81501162  0.79876569  0.95032498    -0.80710
O2040       O  0.71396083  0.68222563  0.91913153    -0.80670
O2041       O  0.75603735  0.78200495  0.87076328    -0.80630
O2042       O  0.78344324  0.71279761  0.05049581    -0.80700
Co2043     Co  0.71137142  0.72135433  0.93811081     1.51530
Co2044     Co  0.80005462  0.78061159  0.01930966     1.51690
Co2045     Co  0.74510124  0.71461159  0.01634608     1.51570
Co2046     Co  0.74719890  0.78483681  0.94784790     1.51470
O2047       O  0.75980338  0.75234625  0.97186011    -1.42600
C2048       C  0.74154079  0.75692437  0.84336256     1.08950
C2049       C  0.81005770  0.72740314  0.02743928     1.09040
C2050       C  0.73646727  0.67646588  0.92954785     1.08980
C2051       C  0.81655204  0.82514289  0.94731117     1.08960
O2052       O  0.70224396  0.67894637  0.42025024    -0.80660
O2053       O  0.72569588  0.78590939  0.48418777    -0.80690
O2054       O  0.68659311  0.74357416  0.53571276    -0.80690
O2055       O  0.74425797  0.76080873  0.36592078    -0.80640
O2056       O  0.72284814  0.78014192  0.58996680    -0.80760
O2057       O  0.75116395  0.71899279  0.36369310    -0.80680
O2058       O  0.76618914  0.81310564  0.43819108    -0.80660
O2059       O  0.68553742  0.71115044  0.44440728    -0.80700
C2060       C  0.67999741  0.68624972  0.42118472     1.09030
C2061       C  0.74467173  0.81198655  0.46600290     1.08910
C2062       C  0.69432191  0.76587259  0.57004558     1.09050
C2063       C  0.74529232  0.73906914  0.33958798     1.08930
O2064       O  0.79559174  0.72664762  0.45349171    -0.80660
O2065       O  0.76176017  0.75135544  0.59170451    -0.80740
O2066       O  0.69929111  0.66881937  0.51353709    -0.80680
O2067       O  0.80882756  0.79379934  0.48246757    -0.80660
O2068       O  0.78504338  0.80660756  0.54232710    -0.80710
O2069       O  0.74944890  0.69087437  0.51222437    -0.80670
O2070       O  0.80314549  0.76207733  0.39447017    -0.80630
O2071       O  0.71411350  0.71240641  0.59433593    -0.80700
Co2072     Co  0.74966913  0.70586816  0.44069342     1.51530
Co2073     Co  0.74291855  0.76673849  0.53685663     1.51690
Co2074     Co  0.70142999  0.71222582  0.51693966     1.51570
Co2075     Co  0.77564483  0.77779617  0.42590291     1.51470
O2076       O  0.74693855  0.74183011  0.47863697    -1.42600
C2077       C  0.81270061  0.74558183  0.41960113     1.08950
C2078       C  0.73988436  0.73136001  0.61879437     1.09040
C2079       C  0.72417434  0.66596044  0.51585277     1.08980
C2080       C  0.80977128  0.81247655  0.51741683     1.08960
C2081       C  0.74096056  0.73574441  0.67763037    -0.00680
C2082       C  0.77060264  0.75251630  0.70596172    -0.12550
C2083       C  0.77211951  0.76160895  0.75958934     0.01560
C2084       C  0.74375099  0.75488041  0.78516835    -0.00770
C2085       C  0.71448104  0.73877865  0.75664001    -0.12490
C2086       C  0.71268590  0.72904888  0.70418108     0.01440
H2087       H  0.79260437  0.75855250  0.68619506     0.14420
H2088       H  0.69244672  0.73302949  0.77622428     0.14420
C2089       C  0.68120455  0.71344666  0.67855699     0.36070
C2090       C  0.80264156  0.77646603  0.78813191     0.35980
N2091       N  0.65590148  0.70107695  0.65838180    -0.44270
N2092       N  0.82707039  0.78825253  0.81121198    -0.44270
C2093       C  0.75400631  0.74708710  0.16856635    -0.00680
C2094       C  0.74563852  0.71813695  0.19309103    -0.12550
C2095       C  0.74240150  0.71470426  0.24822236     0.01560
C2096       C  0.74515888  0.74005203  0.28010721    -0.00770
C2097       C  0.75264068  0.76879552  0.25488537    -0.12490
C2098       C  0.75813522  0.77278296  0.20026079     0.01440
H2099       H  0.74329175  0.69848937  0.16927713     0.14420
H2100       H  0.75620324  0.78898162  0.27841877     0.14420
C2101       C  0.76949603  0.80394910  0.17885673     0.36070
C2102       C  0.73867720  0.68562163  0.27068058     0.35980
N2103       N  0.77924940  0.82951536  0.16382425    -0.44270
N2104       N  0.73670827  0.66257605  0.28820733    -0.44270
C2105       C  0.76789577  0.90385405  0.52367988    -0.00680
C2106       C  0.75462248  0.89408011  0.47191685    -0.12550
C2107       C  0.74520338  0.86362936  0.45309448     0.01560
C2108       C  0.74749413  0.84170830  0.48696347    -0.00770
C2109       C  0.75803595  0.85064034  0.54016958    -0.12490
C2110       C  0.76864157  0.88149496  0.55842838     0.01440
H2111       H  0.75069982  0.90993604  0.44609712     0.14420
H2112       H  0.75878673  0.83404886  0.56792356     0.14420
C2113       C  0.77891804  0.88933491  0.61332123     0.36070
C2114       C  0.73231983  0.85504494  0.39948280     0.35980
N2115       N  0.78707313  0.89561953  0.65734462    -0.44270
N2116       N  0.72190749  0.84810793  0.35658079    -0.44270
C2117       C  0.72896654  0.58248340  0.47002379    -0.00680
C2118       C  0.69909231  0.58015028  0.48025664    -0.12550
C2119       C  0.69678817  0.60651903  0.49742799     0.01560
C2120       C  0.72462422  0.63592105  0.50495657    -0.00770
C2121       C  0.75442821  0.63802313  0.49459057    -0.12490
C2122       C  0.75679458  0.61205633  0.47664303     0.01440
H2123       H  0.67754351  0.55745131  0.47663898     0.14420
H2124       H  0.77627796  0.66041523  0.49908360     0.14420
C2125       C  0.78820291  0.61688285  0.46433737     0.36070
C2126       C  0.66575196  0.60270558  0.50786919     0.35980
N2127       N  0.81341778  0.62098040  0.45444180    -0.44270
N2128       N  0.64108615  0.60018297  0.51690321    -0.44270
C2129       C  0.75420349  0.98698107  0.81337505    -0.00680
C2130       C  0.75140984  0.51150182  0.78821634    -0.12550
C2131       C  0.75617461  0.51680765  0.73398680     0.01560
C2132       C  0.76390940  0.49711399  0.70304964    -0.00770
C2133       C  0.76707242  0.97277712  0.72822534    -0.12490
C2134       C  0.76226563  0.96745602  0.78262613     0.01440
H2135       H  0.74548195  0.52678838  0.81101557     0.14420
H2136       H  0.77306639  0.95760903  0.70523350     0.14420
C2137       C  0.76593429  0.94174807  0.80514088     0.36070
C2138       C  0.75367628  0.54331938  0.71210807     0.35980
N2139       N  0.76889596  0.92111536  0.82294032    -0.44270
N2140       N  0.75158188  0.56454518  0.69486865    -0.44270
C2141       C  0.74676415  0.99733905  0.32144212    -0.00680
C2142       C  0.76712673  0.52807212  0.30331634    -0.12550
C2143       C  0.76850127  0.53531955  0.24908695     0.01560
C2144       C  0.74888102  0.51161164  0.21189885    -0.00770
C2145       C  0.72722442  0.98147961  0.23056041    -0.12490
C2146       C  0.72609301  0.97412721  0.28436929     0.01440
H2147       H  0.78267088  0.54632676  0.33148799     0.14420
H2148       H  0.71171730  0.96308245  0.20253316     0.14420
C2149       C  0.70303397  0.94266866  0.30017031     0.36070
C2150       C  0.79155393  0.56657965  0.23262322     0.35980
N2151       N  0.68453975  0.91747234  0.31275909    -0.44270
N2152       N  0.81005624  0.59162798  0.21941459    -0.44270
C2153       C  0.76303544  0.84557632  0.05054191    -0.00680
C2154       C  0.78776947  0.87244502  0.02795023    -0.12550
C2155       C  0.78575741  0.90005038  0.01983650     0.01560
C2156       C  0.76022007  0.90326261  0.04015110    -0.00770
C2157       C  0.73649661  0.87730897  0.06730866    -0.12490
C2158       C  0.73715129  0.84825954  0.07089840     0.01440
H2159       H  0.80798637  0.87126158  0.01262209     0.14420
H2160       H  0.71660867  0.87911297  0.08314248     0.14420
C2161       C  0.71134821  0.82173330  0.09595624     0.36070
C2162       C  0.80937002  0.92364421  0.98680181     0.35980
N2163       N  0.69071614  0.80042994  0.11618201    -0.44270
N2164       N  0.82780247  0.94140927  0.95827153    -0.44270
C2165       C  0.73399349  0.58694163  0.93962266    -0.00680
C2166       C  0.75303480  0.60829727  0.90066265    -0.12550
C2167       C  0.75311784  0.63741227  0.89269994     0.01560
C2168       C  0.73264089  0.64446737  0.92185446    -0.00770
C2169       C  0.71280941  0.62236331  0.95787143    -0.12490
C2170       C  0.71469540  0.59527846  0.96955117     0.01440
H2171       H  0.76908285  0.60308202  0.87871734     0.14420
H2172       H  0.69902406  0.62840570  0.98349391     0.14420
C2173       C  0.70249001  0.58222336  0.02036535     0.36070
C2174       C  0.77478243  0.65994665  0.85601691     0.35980
N2175       N  0.69335282  0.57587009  0.06295417    -0.44270
N2176       N  0.79210867  0.67814457  0.82661348    -0.44270
C2177       C  0.84370239  0.60355353  0.56830214    -0.00680
C2178       C  0.86603587  0.60122609  0.53655658    -0.12550
C2179       C  0.89672060  0.62611923  0.53156327     0.01560
C2180       C  0.90659764  0.65454242  0.55955351    -0.00770
C2181       C  0.88451282  0.65736659  0.59171760    -0.12490
C2182       C  0.85311883  0.63198944  0.59644461     0.01440
H2183       H  0.85914326  0.57997608  0.51328374     0.14420
H2184       H  0.89153371  0.67954701  0.61203628     0.14420
C2185       C  0.83138636  0.63552911  0.63045835     0.36070
C2186       C  0.91603809  0.62234875  0.49280162     0.35980
N2187       N  0.81397097  0.63832952  0.65789772    -0.44270
N2188       N  0.93002123  0.61815968  0.46024315    -0.44270
C2189       C  0.59349881  0.84251889  0.44202736    -0.00680
C2190       C  0.62139918  0.84499420  0.46547533    -0.12550
C2191       C  0.64929944  0.87376456  0.46999289     0.01560
C2192       C  0.65100182  0.90170020  0.44694802    -0.00770
C2193       C  0.62419721  0.89846396  0.41694292    -0.12490
C2194       C  0.59547216  0.86925767  0.41463060     0.01440
H2195       H  0.62063715  0.82496216  0.48594458     0.14420
H2196       H  0.62503854  0.91900087  0.39779448     0.14420
C2197       C  0.56833358  0.86770403  0.38495350     0.36070
C2198       C  0.67395507  0.87316766  0.50421463     0.35980
N2199       N  0.54670741  0.86654719  0.36081506    -0.44270
N2200       N  0.69223026  0.87137332  0.53343088    -0.44270
C2201       C  0.90233893  0.75020386  0.43121712    -0.00680
C2202       C  0.87845740  0.72670855  0.39866402    -0.12550
C2203       C  0.84904250  0.72590377  0.39049563     0.01560
C2204       C  0.84431668  0.74980582  0.41279944    -0.00770
C2205       C  0.86897211  0.77489364  0.44056159    -0.12490
C2206       C  0.89761961  0.77495912  0.45150056     0.01440
H2207       H  0.88186182  0.70778362  0.38285564     0.14420
H2208       H  0.86467977  0.79285952  0.45829953     0.14420
C2209       C  0.91978683  0.79918439  0.48787600     0.36070
C2210       C  0.82352895  0.69951886  0.36199101     0.35980
N2211       N  0.93626493  0.81835728  0.51843429    -0.44270
N2212       N  0.80314944  0.67825257  0.33924788    -0.44270
C2213       C  0.61455237  0.78189902  0.58764045    -0.00680
C2214       C  0.62324230  0.77713627  0.53791748    -0.12550
C2215       C  0.65114251  0.77568060  0.53138684     0.01560
C2216       C  0.67055227  0.77694265  0.57624899    -0.00770
C2217       C  0.66285848  0.78336561  0.62643872    -0.12490
C2218       C  0.63492520  0.78613721  0.63228450     0.01440
H2219       H  0.60737411  0.77340508  0.50363896     0.14420
H2220       H  0.67738480  0.78429757  0.66109419     0.14420
C2221       C  0.62646514  0.79114341  0.68424408     0.36070
C2222       C  0.65793408  0.77127438  0.47762256     0.35980
N2223       N  0.61955976  0.79519554  0.72583999    -0.44270
N2224       N  0.66267502  0.76755783  0.43428429    -0.44270
C2225       C  0.98841703  0.74878260  0.81686726    -0.00680
C2226       C  0.50927297  0.77817980  0.79470203    -0.12550
C2227       C  0.51335636  0.78176753  0.74002547     0.01560
C2228       C  0.49592423  0.75558258  0.70591175    -0.00770
C2229       C  0.97433726  0.72629454  0.72824269    -0.12490
C2230       C  0.97069643  0.72269061  0.78316671     0.01440
H2231       H  0.52288658  0.79851508  0.82053040     0.14420
H2232       H  0.96074749  0.70580664  0.70276422     0.14420
C2233       C  0.94814235  0.69236463  0.80382199     0.36070
C2234       C  0.53692886  0.81208286  0.72077028     0.35980
N2235       N  0.93007294  0.66807859  0.82048018    -0.44270
N2236       N  0.55598451  0.83633225  0.70547373    -0.44270
C2237       C  0.51842628  0.75624597  0.21126323    -0.00680
C2238       C  0.00651218  0.72777668  0.23889282    -0.12550
C2239       C  0.00044697  0.72658505  0.29289005     0.01560
C2240       C  0.00713267  0.75460359  0.32077218    -0.00770
C2241       C  0.51938470  0.78310205  0.29335533    -0.12490
C2242       C  0.52505920  0.78424388  0.23922661     0.01440
H2243       H  0.00074551  0.70610315  0.21779655     0.14420
H2244       H  0.52459050  0.80462950  0.31435392     0.14420
C2245       C  0.53803286  0.81470985  0.21413411     0.36070
C2246       C  0.98533491  0.69587452  0.31738174     0.35980
N2247       N  0.54823541  0.83929509  0.19470188    -0.44270
N2248       N  0.97295376  0.67117874  0.33660424    -0.44270
C2249       C  0.85924913  0.59431359  0.09402348    -0.00680
C2250       C  0.86005260  0.62364093  0.10165619    -0.12550
C2251       C  0.88918035  0.65243495  0.10516887     0.01560
C2252       C  0.91855222  0.65331458  0.09568177    -0.00770
C2253       C  0.91810823  0.62384920  0.09363590    -0.12490
C2254       C  0.88911080  0.59473903  0.09450481     0.01440
H2255       H  0.83769754  0.62403184  0.10577994     0.14420
H2256       H  0.94045108  0.62342407  0.09027657     0.14420
C2257       C  0.89094591  0.56593174  0.09729655     0.36070
C2258       C  0.88899382  0.67985916  0.12635809     0.35980
N2259       N  0.89322833  0.54328720  0.10211596    -0.44270
N2260       N  0.88926714  0.70130264  0.14682352    -0.44270
C2261       C  0.64879252  0.91119732  0.94807271    -0.00680
C2262       C  0.63690335  0.89906431  0.99765435    -0.12550
C2263       C  0.60760715  0.87143030  0.00255403     0.01560
C2264       C  0.58917453  0.85411900  0.95708466    -0.00770
C2265       C  0.60054880  0.86671959  0.90691789    -0.12490
C2266       C  0.62999455  0.89517027  0.90222754     0.01440
H2267       H  0.65056445  0.91148593  0.03313844     0.14420
H2268       H  0.58728892  0.85378756  0.87157562     0.14420
C2269       C  0.64142803  0.90654758  0.85010815     0.36070
C2270       C  0.59712471  0.86130312  0.05564200     0.35980
N2271       N  0.65080200  0.91568939  0.80838079    -0.44270
N2272       N  0.58896170  0.85332862  0.09830149    -0.44270
C2273       C  0.89234219  0.72280536  0.98834948    -0.00680
C2274       C  0.89011597  0.73243612  0.03967359    -0.12550
C2275       C  0.86117694  0.72950250  0.05717556     0.01560
C2276       C  0.83359749  0.71612452  0.02353564    -0.00770
C2277       C  0.83533654  0.70436982  0.97362053    -0.12490
C2278       C  0.86435823  0.70776057  0.95572429     0.01440
H2279       H  0.91144687  0.74366260  0.06531983     0.14420
H2280       H  0.81475226  0.69549904  0.94633889     0.14420
C2281       C  0.86557758  0.69869229  0.90184153     0.36070
C2282       C  0.86096784  0.74319009  0.10771691     0.35980
N2283       N  0.86678342  0.69182360  0.85849464    -0.44270
N2284       N  0.86067396  0.75403445  0.14826030    -0.44270
C2285       C  0.66883301  0.78008222  0.97358964    -0.00680
C2286       C  0.64862725  0.75152159  0.99900897    -0.12550
C2287       C  0.62436384  0.74828549  0.03108987     0.01560
C2288       C  0.61747987  0.77327978  0.03706936    -0.00770
C2289       C  0.63770695  0.80247401  0.01314891    -0.12490
C2290       C  0.66368652  0.80621239  0.98229414     0.01440
H2291       H  0.65166502  0.73082750  0.99486528     0.14420
H2292       H  0.63241490  0.82180852  0.01641636     0.14420
C2293       C  0.68400760  0.83659067  0.95954253     0.36070
C2294       C  0.60563402  0.71785940  0.05534077     0.35980
N2295       N  0.70033494  0.86107601  0.94159342    -0.44270
N2296       N  0.59074599  0.69332824  0.07407262    -0.44270
C2297       C  0.83836268  0.84338546  0.52053320    -0.00680
C2298       C  0.85380045  0.85709860  0.56919844    -0.12550
C2299       C  0.88234461  0.88613393  0.57043553     0.01560
C2300       C  0.89490836  0.90169030  0.52224868    -0.00770
C2301       C  0.87870062  0.88767072  0.47425550    -0.12490
C2302       C  0.85097421  0.85919396  0.47285885     0.01440
H2303       H  0.84405062  0.84483945  0.60579721     0.14420
H2304       H  0.88757025  0.89893076  0.43657756     0.14420
C2305       C  0.83599054  0.84733629  0.42109411     0.36070
C2306       C  0.89821609  0.89892671  0.62106309     0.35980
N2307       N  0.82458488  0.83838939  0.37922460    -0.44270
N2308       N  0.91100409  0.90905267  0.66169617    -0.44270
C2309       C  0.59248934  0.60575407  0.44428695    -0.00680
C2310       C  0.60952817  0.60590195  0.40002533    -0.12550
C2311       C  0.63684454  0.63350243  0.38594050     0.01560
C2312       C  0.64628581  0.66151873  0.41506820    -0.00770
C2313       C  0.62540220  0.66229876  0.45235435    -0.12490
C2314       C  0.59950086  0.63452475  0.46886983     0.01440
H2315       H  0.60359877  0.58386920  0.38003792     0.14420
H2316       H  0.63168856  0.68382764  0.47433914     0.14420
C2317       C  0.58297979  0.63607060  0.51469935     0.36070
C2318       C  0.65544886  0.63184676  0.34364106     0.35980
N2319       N  0.57038131  0.63769215  0.55197290    -0.44270
N2320       N  0.66950697  0.62966753  0.30901970    -0.44270
C2321       C  0.84531404  0.99580768  0.42527436    -0.00680
C2322       C  0.87281015  0.52588576  0.42426575    -0.12550
C2323       C  0.90365798  0.52900250  0.42044452     0.01560
C2324       C  0.90780406  0.00215869  0.42194558    -0.00770
C2325       C  0.88048351  0.97259102  0.41498365    -0.12490
C2326       C  0.84957956  0.96935814  0.41418172     0.01440
H2327       H  0.87037848  0.54695433  0.42796221     0.14420
H2328       H  0.88322075  0.95159401  0.41343810     0.14420
C2329       C  0.82329024  0.93853278  0.40183500     0.36070
C2330       C  0.93036207  0.55930203  0.40973928     0.35980
N2331       N  0.80330699  0.91363115  0.38933209    -0.44270
N2332       N  0.95138006  0.58315730  0.39727804    -0.44270
C2333       C  0.60278925  0.50668059  0.56409710    -0.00680
C2334       C  0.60377928  0.97926446  0.55007268    -0.12550
C2335       C  0.63142947  0.97665565  0.55880557     0.01560
C2336       C  0.66046129  0.50357609  0.57470623    -0.00770
C2337       C  0.65877714  0.52998056  0.59424379    -0.12490
C2338       C  0.62967744  0.53099923  0.59116820     0.01440
H2339       H  0.58334063  0.96023390  0.52989763     0.14420
H2340       H  0.68035822  0.55044134  0.60905791     0.14420
C2341       C  0.62832925  0.55767285  0.61351680     0.36070
C2342       C  0.62910971  0.94611507  0.55026300     0.35980
N2343       N  0.62707639  0.57883657  0.63213352    -0.44270
N2344       N  0.62653149  0.92124080  0.54486384    -0.44270
C2345       C  0.50892502  0.90915918  0.48416731    -0.00680
C2346       C  0.52420937  0.91212649  0.53413055    -0.12550
C2347       C  0.52932374  0.88774630  0.55459249     0.01560
C2348       C  0.51759082  0.85934559  0.52582771    -0.00770
C2349       C  0.00230524  0.85658638  0.47572159    -0.12490
C2350       C  0.99792727  0.88114619  0.45482644     0.01440
H2351       H  0.53182260  0.93345630  0.55746045     0.14420
H2352       H  0.99298429  0.83478123  0.45310750     0.14420
C2353       C  0.98170582  0.87695747  0.40373168     0.36070
C2354       C  0.54580166  0.89207753  0.60536345     0.35980
N2355       N  0.96866353  0.87363919  0.36283655    -0.44270
N2356       N  0.55927387  0.89582398  0.64593343    -0.44270
C2357       C  0.99703250  0.59248999  0.51108086    -0.00680
C2358       C  0.51047026  0.60876859  0.46386384    -0.12550
C2359       C  0.51408188  0.63885601  0.45390297     0.01560
C2360       C  0.00468151  0.65345531  0.49182338    -0.00770
C2361       C  0.99303404  0.63821547  0.54003297    -0.12490
C2362       C  0.98889574  0.60798664  0.54986812     0.01440
H2363       H  0.51777077  0.59779985  0.43394780     0.14420
H2364       H  0.98656606  0.64970912  0.57010516     0.14420
C2365       C  0.97721343  0.59430282  0.60074865     0.36070
C2366       C  0.52725131  0.65414361  0.40458946     0.35980
N2367       N  0.96801708  0.58410626  0.64205586    -0.44270
N2368       N  0.53797139  0.66639097  0.36511027    -0.44270
C2369       C  0.01248818  0.02427569  0.69039593    -0.00680
C2370       C  0.53744001  0.02329125  0.72022024    -0.12550
C2371       C  0.53409286  0.01602603  0.77454498     0.01560
C2372       C  0.00568808  0.51015952  0.79903103    -0.00770
C2373       C  0.98143477  0.51221465  0.76959859    -0.12490
C2374       C  0.98432916  0.51869585  0.71572658     0.01440
H2375       H  0.55834139  0.02582764  0.70038891     0.14420
H2376       H  0.95963423  0.50784691  0.78864256     0.14420
C2377       C  0.95675353  0.51657379  0.68638705     0.36070
C2378       C  0.55855392  0.01196400  0.80314682     0.35980
N2379       N  0.93436012  0.51417639  0.66303506    -0.44270
N2380       N  0.57792893  0.00822689  0.82594012    -0.44270
C2381       C  0.48473677  0.97358624  0.18194933    -0.00680
C2382       C  0.97065408  0.48973000  0.20650339    -0.12550
C2383       C  0.96833694  0.48961298  0.26188186     0.01560
C2384       C  0.48015573  0.47311488  0.29350105    -0.00770
C2385       C  0.49294848  0.95602811  0.26939929    -0.12490
C2386       C  0.49534758  0.95596904  0.21443932     0.01440
H2387       H  0.96231563  0.50327172  0.18267558     0.14420
H2388       H  0.50191822  0.94323810  0.29396144     0.14420
C2389       C  0.51010569  0.93851015  0.19363219     0.36070
C2390       C  0.95452602  0.50715583  0.28544105     0.35980
N2391       N  0.52210608  0.92461920  0.17732356    -0.44270
N2392       N  0.94338987  0.52123795  0.30408542    -0.44430
C2393       C  0.90581576  0.90135218  0.00794353    -0.00680
C2394       C  0.88728378  0.90728912  0.96888818    -0.12550
C2395       C  0.85846171  0.88300124  0.94755898     0.01560
C2396       C  0.84719171  0.85221969  0.96610435    -0.00770
C2397       C  0.86526842  0.84641888  0.00604925    -0.12490
C2398       C  0.89431018  0.87052988  0.02676621     0.01440
H2399       H  0.89595287  0.93080876  0.95297775     0.14420
H2400       H  0.85660259  0.82281255  0.02162173     0.14420
C2401       C  0.91154391  0.86310687  0.06760226     0.36070
C2402       C  0.84184096  0.88976865  0.90482282     0.35980
N2403       N  0.92534470  0.85714743  0.10033941    -0.44270
N2404       N  0.82852823  0.89504528  0.87033373    -0.44270
C2405       C  0.65452524  0.64949725  0.01459611    -0.00680
C2406       C  0.64642223  0.63290911  0.96591083    -0.12550
C2407       C  0.61520136  0.60938270  0.95329677     0.01560
C2408       C  0.59074004  0.60315800  0.98825827    -0.00770
C2409       C  0.59832025  0.62068037  0.03577981    -0.12490
C2410       C  0.62978488  0.64399981  0.04883170     0.01440
H2411       H  0.66420613  0.63807123  0.93690184     0.14420
H2412       H  0.57985051  0.61507750  0.06386057     0.14420
C2413       C  0.63619313  0.66191984  0.09741402     0.36070
C2414       C  0.60916202  0.59120241  0.90516349     0.35980
N2415       N  0.64133783  0.67648488  0.13614556    -0.44270
N2416       N  0.60469674  0.57677039  0.86651061    -0.44270
C2417       C  0.91352196  0.02096070  0.94073225    -0.00680
C2418       C  0.89732455  0.53079109  0.90386067    -0.12550
C2419       C  0.86683689  0.52732862  0.91512728     0.01560
C2420       C  0.85288673  0.01443263  0.96426237    -0.00770
C2421       C  0.86986083  0.00543696  0.00023523    -0.12490
C2422       C  0.89891117  0.00789841  0.98915156     0.01440
H2423       H  0.90795667  0.54033158  0.86620162     0.14420
H2424       H  0.85982117  0.99474883  0.03772373     0.14420
C2425       C  0.91302192  0.99745078  0.03094521     0.36070
C2426       C  0.85053780  0.53683650  0.87589036     0.35980
N2427       N  0.92247181  0.98900969  0.06695960    -0.44270
N2428       N  0.83748084  0.54448558  0.84436998    -0.44270
C2429       C  0.65907957  0.50650823  0.05943081    -0.00680
C2430       C  0.64770601  0.50727776  0.11009660    -0.12550
C2431       C  0.61971160  0.51023680  0.11551011     0.01560
C2432       C  0.60467410  0.51549578  0.07028224    -0.00770
C2433       C  0.61827980  0.01791462  0.02106833    -0.12490
C2434       C  0.64296741  0.51089439  0.01467592     0.01440
H2435       H  0.66002805  0.50462326  0.14505306     0.14420
H2436       H  0.60667802  0.02144414  0.98575847     0.14420
C2437       C  0.64971091  0.00753000  0.96062192     0.36070
C2438       C  0.60614993  0.50658649  0.16688630     0.35980
N2439       N  0.65295251  0.00491060  0.91603644    -0.44270
N2440       N  0.59515233  0.50365800  0.20804807    -0.44270
C2441       C  0.99190422  0.89297011  0.94951882    -0.00680
C2442       C  0.96265777  0.86587575  0.95899243    -0.12550
C2443       C  0.96159001  0.83891109  0.98276535     0.01560
C2444       C  0.49026708  0.83879169  0.99896712    -0.00770
C2445       C  0.51939706  0.86574102  0.98803716    -0.12490
C2446       C  0.52052613  0.89195399  0.96232230     0.01440
H2447       H  0.94041955  0.86621853  0.95011686     0.14420
H2448       H  0.54181864  0.86613931  0.99813567     0.14420
C2449       C  0.55170593  0.91751330  0.94986498     0.36070
C2450       C  0.93047361  0.81302706  0.99254735     0.35980
N2451       N  0.57672594  0.93783818  0.93990803    -0.44270
N2452       N  0.90447701  0.79376317  0.99933545    -0.44270
C2453       C  0.49238420  0.58905568  0.04914165    -0.00680
C2454       C  0.96631488  0.58559729  0.01627036    -0.12550
C2455       C  0.96396103  0.61146969  0.99521248     0.01560
C2456       C  0.98768041  0.64219274  0.00845162    -0.00770
C2457       C  0.51146603  0.64578294  0.04721411    -0.12490
C2458       C  0.51360477  0.61968220  0.06817230     0.01440
H2459       H  0.94802875  0.56259240  0.00628913     0.14420
H2460       H  0.52819161  0.66916064  0.06204289     0.14420
C2461       C  0.53625107  0.62483636  0.11131684     0.36070
C2462       C  0.93761534  0.60605243  0.95917740     0.35980
N2463       N  0.55402799  0.62899530  0.14664068    -0.44270
N2464       N  0.91674215  0.60241409  0.93021388    -0.44270
loop_ 
_geom_bond_atom_site_label_1 
_geom_bond_atom_site_label_2 
_geom_bond_distance 
_geom_bond_site_symmetry_2 
_ccdc_geom_bond_type 
O1            C9   1.258       .  A
O1        Co1253   2.022   1_455  S
O2         C1242   1.237   1_455  A
O2          Co22   1.939   1_556  S
O3          C627   1.284       .  A
O3          Co23   2.058       .  S
O4          C628   1.261       .  A
O4          Co24   1.982       .  S
O5           C11   1.258       .  A
O5          Co22   1.919       .  S
O6           C12   1.254       .  A
O6          Co21   1.968       .  S
O7           C10   1.265       .  A
O7          Co24   2.060       .  S
O8            C9   1.241   1_554  A
O8          Co23   1.956       .  S
C9          C560   1.470       .  S
C10        O1234   1.237       .  A
C10         C593   1.494       .  S
C11         O619   1.284       .  A
C11        C1200   1.484       .  S
C12         O620   1.261   1_545  A
C12         C524   1.464       .  S
O13          C26   1.274       .  A
O13         Co21   1.947       .  S
O14          C27   1.260   1_455  A
O14         Co22   1.987       .  S
O15          C28   1.283   1_455  A
O15         Co23   1.977       .  S
O16          C29   1.234       .  A
O16         Co24   1.927   1_554  S
O17          C29   1.269       .  A
O17       Co1254   2.063       .  S
O18        C1260   1.285       .  A
O18         Co21   2.028   1_554  S
O19         C642   1.275       .  A
O19         Co24   2.009       .  S
O20         C643   1.260       .  A
O20         Co23   1.986   1_665  S
Co21       O1233   2.022       .  S
Co21       O1257   2.067   1_545  S
Co22       O1249   2.063   1_455  S
Co22        O641   2.084   1_554  S
Co23         O25   1.986   1_544  S
Co24       O1873   2.132       .  S
O25       Co1253   2.067   1_465  S
O25        Co638   2.084   1_556  S
O25       Co1872   2.132   1_455  S
C26         O635   1.275   1_545  A
C26        C1185   1.481       .  S
C27         O636   1.260       .  A
C27         C533   1.493       .  S
C28        O1250   1.285       .  A
C28         C605   1.513       .  S
C29         C545   1.483       .  S
O30          C38   1.297   1_455  A
O30         Co50   2.090   1_565  S
O31          C39   1.267       .  A
O31        Co667   2.040   1_545  S
O32          C40   1.271       .  A
O32         Co52   2.015       .  S
O33          C41   1.276       .  A
O33         Co53   1.884       .  S
O34         C656   1.265   1_565  A
O34        Co667   1.998       .  S
O35          C41   1.298       .  A
O35         Co50   2.061       .  S
O36        C1271   1.244   1_455  A
O36         Co53   1.967       .  S
O37        C1886   1.264       .  A
O37         Co52   1.884       .  S
C38        O1885   1.264       .  A
C38         C536   1.469       .  S
C39        O1268   1.244       .  A
C39         C509   1.487       .  S
C40         O650   1.265       .  A
C40         C476   1.488       .  S
C41         C461   1.464       .  S
O42          C55   1.251       .  A
O42         Co50   1.995       .  S
O43          C56   1.262       .  A
O43         Co51   1.986       .  S
O44        C1289   1.248       .  A
O44         Co52   1.974       .  S
O45        C1906   1.274       .  A
O45         Co53   2.034       .  S
O46          C58   1.253       .  A
O46         Co51   1.942       .  S
O47          C57   1.250       .  A
O47        Co666   1.979       .  S
O48          C55   1.245       .  A
O48         Co53   1.987       .  S
O49          C56   1.261       .  A
O49         Co52   1.957       .  S
Co50        O663   1.979   1_545  S
Co50         O54   2.240   1_445  S
Co51        O647   2.040       .  S
Co51        O650   1.998       .  S
Co51       O1902   2.089       .  S
Co52       O1902   1.933       .  S
Co53         O54   1.902   1_445  S
O54       Co1899   2.089       .  S
O54       Co1900   1.933       .  S
C55         C485   1.482       .  S
C56         C452   1.475       .  S
C57        O1276   1.248   1_455  A
C57         C497   1.470       .  S
C58        O1893   1.274       .  A
C58         C521   1.465       .  S
O59          C67   1.272       .  A
O59         Co79   2.018   1_554  S
O60          C68   1.274   1_455  A
O60         Co80   2.031       .  S
O61          C69   1.285       .  A
O61         Co81   2.039       .  S
O62          C70   1.312       .  A
O62         Co82   2.119       .  S
O63          C69   1.263       .  A
O63         Co80   1.934       .  S
O64          C70   1.273       .  A
O64         Co79   1.904       .  S
O65          C68   1.267   1_556  A
O65       Co1314   1.984       .  S
O66          C67   1.274       .  A
O66       Co1313   2.050       .  S
C67         C404   1.525       .  S
C68         C596   1.499   1_554  S
C69         C389   1.481       .  S
C70         C425   1.483       .  S
O71          C84   1.302       .  A
O71         Co79   2.124       .  S
O72          C85   1.263       .  A
O72         Co80   2.024       .  S
O73        C1318   1.238   1_455  A
O73         Co81   1.934   1_556  S
O74          C87   1.273       .  A
O74       Co1314   2.092   1_455  S
O75          C87   1.238       .  A
O75         Co80   1.951   1_556  S
O76          C86   1.266       .  A
O76         Co79   2.059       .  S
O77          C84   1.256       .  A
O77         Co82   1.876       .  S
O78          C85   1.242       .  A
O78         Co81   1.927       .  S
Co79       O1315   2.074   1_556  S
Co80         O83   2.071       .  S
Co81       O1298   2.050   1_455  S
Co81         O83   2.023       .  S
Co82       O1297   1.984       .  S
Co82       O1306   2.092       .  S
Co82       O1315   2.014   1_556  S
O83       Co1311   2.074   1_454  S
O83       Co1314   2.014   1_454  S
C84         C377   1.475       .  S
C85         C440   1.486       .  S
C86        O1305   1.238       .  A
C86         C608   1.500   1_556  S
C87         C416   1.508       .  S
O88          C96   1.248       .  A
O88        Co108   1.948       .  S
O89          C97   1.259       .  A
O89        Co109   2.044       .  S
O90          C98   1.243   1_655  A
O90        Co110   1.933   1_655  S
O91          C99   1.238       .  A
O91        Co111   1.929       .  S
O92          C98   1.261       .  A
O92        Co109   2.007       .  S
O93          C99   1.257       .  A
O93        Co108   2.015       .  S
O94        C1329   1.241       .  A
O94        Co111   1.943       .  S
O95          C96   1.274       .  A
O95       Co1342   2.054       .  S
C96         C332   1.476       .  S
C97        O1326   1.241   1_455  A
C97         C500   1.479       .  S
C98         C380   1.485   1_455  S
C99         C353   1.462       .  S
O100        C113   1.249       .  A
O100       Co108   1.933       .  S
O101        C114   1.265       .  A
O101       Co109   1.905       .  S
O102       C1347   1.246       .  A
O102       Co110   1.963       .  S
O103        C116   1.261       .  A
O103      Co1343   2.008   1_455  S
O104        C116   1.269       .  A
O104       Co109   1.991       .  S
O105        C115   1.251       .  A
O105       Co108   1.990       .  S
O106        C113   1.275       .  A
O106       Co111   2.046       .  S
O107        C114   1.293       .  A
O107       Co110   2.070       .  S
Co108      O1344   2.104       .  S
Co109       O112   2.034   1_455  S
Co110      O1327   2.054   1_455  S
Co110       O112   2.156   1_455  S
Co111      O1335   2.008       .  S
Co111      O1344   2.070       .  S
O112      Co1340   2.104       .  S
O112      Co1343   2.070       .  S
C113        C392   1.479       .  S
C114        C365   1.468       .  S
C115       O1334   1.246       .  A
C115        C512   1.471       .  S
C116        C341   1.495       .  S
O117        C125   1.275       .  A
O117       Co137   2.025       .  S
O118        C126   1.257   1_556  A
O118       Co138   1.994       .  S
O119        C127   1.268       .  A
O119       Co139   1.931       .  S
O120        C128   1.253   1_565  A
O120       Co140   1.935       .  S
O121        C127   1.300       .  A
O121       Co138   2.115       .  S
O122        C128   1.276       .  A
O122       Co137   2.045       .  S
O123        C126   1.261       .  A
O123       Co756   2.017       .  S
O124        C741   1.266       .  A
O124       Co139   1.990   1_554  S
C125        O740   1.266   1_545  A
C125        C581   1.494       .  S
C126        C308   1.503       .  S
C127        C413   1.499       .  S
C128        C296   1.485       .  S
O129        C142   1.255       .  A
O129       Co137   1.959       .  S
O130        C143   1.256       .  A
O130       Co138   1.893       .  S
O131        C144   1.265       .  A
O131       Co755   2.028   1_545  S
O132        C761   1.276   1_564  A
O132       Co140   1.980       .  S
O133        C145   1.268       .  A
O133       Co138   1.997       .  S
O134        C144   1.251       .  A
O134       Co137   1.974   1_556  S
O135        C142   1.284       .  A
O135       Co140   2.089   1_545  S
O136        C143   1.297       .  A
O136       Co139   2.102       .  S
Co137       O141   2.053       .  S
Co138       O757   2.020   1_556  S
Co139       O747   2.028       .  S
Co139       O757   2.051   1_556  S
Co140       O739   2.017       .  S
Co140       O141   2.042   1_565  S
O141       Co754   2.020   1_544  S
O141       Co755   2.051   1_544  S
C142        C401   1.521       .  S
C143        C281   1.487       .  S
C144        C317   1.487       .  S
C145        O748   1.276   1_556  A
C145        C572   1.491       .  S
O146        C154   1.262       .  A
O146       Co166   2.021       .  S
O147        C155   1.226       .  A
O147       Co167   1.930       .  S
O148        C156   1.276       .  A
O148       Co168   2.080       .  S
O149        C157   1.263   1_565  A
O149       Co169   1.989   1_565  S
O150        C156   1.238       .  A
O150       Co167   1.923       .  S
O151        C157   1.254       .  A
O151       Co166   1.963       .  S
O152        C155   1.261       .  A
O152       Co785   2.061       .  S
O153        C770   1.253       .  A
O153       Co168   1.973       .  S
C154        O769   1.253   1_545  A
C154        C488   1.495       .  S
C155        C257   1.470       .  S
C156        C344   1.503       .  S
C157        C284   1.487   1_545  S
O158        C171   1.275       .  A
O158       Co166   1.941       .  S
O159        C172   1.268       .  A
O159       Co167   2.026       .  S
O160        C173   1.278       .  A
O160       Co784   1.925       .  S
O161        C790   1.261   1_545  A
O161       Co169   1.973       .  S
O162        C174   1.276       .  A
O162       Co167   2.067       .  S
O163        C173   1.292       .  A
O163       Co166   2.027       .  S
O164        C171   1.284       .  A
O164       Co169   2.023       .  S
O165        C172   1.249       .  A
O165       Co168   1.977       .  S
Co166       O786   2.085   1_545  S
Co167       O170   2.022       .  S
Co168       O776   1.925       .  S
Co168       O170   1.972       .  S
Co169       O768   2.061   1_545  S
Co169       O786   2.142   1_545  S
O170       Co782   2.085       .  S
O170       Co785   2.142       .  S
C171        C329   1.485       .  S
C172        C293   1.485       .  S
C173        C269   1.481       .  S
C174        O777   1.261       .  A
C174        C473   1.510       .  S
O175        C183   1.276       .  A
O175       Co195   2.002   1_554  S
O176        C184   1.266       .  A
O176       Co196   2.040       .  S
O177        C185   1.259       .  A
O177       Co197   1.990       .  S
O178        C186   1.282       .  A
O178       Co198   1.954       .  S
O179        C185   1.269       .  A
O179       Co196   2.026       .  S
O180        C186   1.286       .  A
O180       Co195   2.022       .  S
O181        C184   1.252       .  A
O181       Co198   1.998   1_554  S
O182        C183   1.281       .  A
O182       Co197   1.960       .  S
C183        C557   1.482       .  S
C184        C305   1.504       .  S
C185        C245   1.487       .  S
C186        C437   1.505       .  S
O187        C200   1.246       .  A
O187       Co195   1.936       .  S
O188        C201   1.253       .  A
O188       Co196   1.940       .  S
O189        C202   1.237       .  A
O189       Co197   1.977   1_556  S
O190        C203   1.276       .  A
O190       Co198   2.056       .  S
O191        C203   1.243       .  A
O191       Co196   1.941   1_556  S
O192        C202   1.252       .  A
O192       Co195   2.016       .  S
O193        C200   1.264       .  A
O193       Co198   2.025       .  S
O194        C201   1.277       .  A
O194       Co197   2.034       .  S
Co195       O199   2.203       .  S
Co196       O199   2.079   1_554  S
Co197       O199   1.966   1_554  S
Co198       O199   2.016       .  S
C200        C236   1.484       .  S
C201        C428   1.472       .  S
C202        C320   1.481       .  S
C203        C548   1.480       .  S
O204        C212   1.271       .  A
O204       Co224   2.042       .  S
O205        C213   1.240       .  A
O205       Co225   1.984       .  S
O206        C214   1.288       .  A
O206       Co226   2.023       .  S
O207        C215   1.270       .  A
O207       Co227   1.971       .  S
O208        C214   1.278       .  A
O208       Co225   1.959       .  S
O209        C215   1.277       .  A
O209       Co224   2.032       .  S
O210        C213   1.244       .  A
O210       Co227   1.993       .  S
O211        C212   1.247       .  A
O211       Co226   1.948       .  S
C212        C464   1.474       .  S
C213        C260   1.477       .  S
C214        C368   1.482       .  S
C215        C248   1.501       .  S
O216        C229   1.246       .  A
O216       Co224   1.936       .  S
O217        C230   1.248       .  A
O217       Co225   1.953       .  S
O218        C231   1.259       .  A
O218       Co226   2.053       .  S
O219        C232   1.252       .  A
O219       Co227   1.955       .  S
O220        C232   1.263       .  A
O220       Co225   2.006       .  S
O221        C231   1.232       .  A
O221       Co224   1.938       .  S
O222        C229   1.252       .  A
O222       Co227   1.993       .  S
O223        C230   1.266       .  A
O223       Co226   2.023       .  S
Co224       O228   2.052       .  S
Co225       O228   1.979       .  S
Co226       O228   2.197       .  S
Co227       O228   2.113       .  S
C229        C356   1.438       .  S
C230        C233   1.497       .  S
C231        C272   1.490       .  S
C232        C449   1.459       .  S
C233        C234   1.415       .  A
C233        C238   1.419       .  A
C234        C235   1.415       .  A
C234        H239   1.084       .  S
C235        C236   1.410       .  A
C235        C242   1.443       .  S
C236        C237   1.402       .  A
C237        C238   1.395       .  A
C237        H240   1.086       .  S
C238        C241   1.446       .  S
C241        N243   1.157       .  T
C242        N244   1.157       .  T
C245        C246   1.402       .  A
C245        C250   1.411       .  A
C246        C247   1.405       .  A
C246        H251   1.085       .  S
C247        C248   1.421       .  A
C247        C254   1.443       .  S
C248        C249   1.409       .  A
C249        C250   1.407       .  A
C249        H252   1.085       .  S
C250        C253   1.440       .  S
C253        N255   1.156       .  T
C254        N256   1.157       .  T
C257        C258   1.412       .  A
C257        C262   1.399       .  A
C258        C259   1.397       .  A
C258        H263   1.081       .  S
C259        C260   1.398       .  A
C259        C266   1.444       .  S
C260        C261   1.412       .  A
C261        C262   1.400       .  A
C261        H264   1.073       .  S
C262        C265   1.444       .  S
C265        N267   1.157       .  T
C266        N268   1.157       .  T
C269        C270   1.408       .  A
C269        C274   1.411       .  A
C270        C271   1.404       .  A
C270        H275   1.085       .  S
C271        C272   1.409       .  A
C271        C278   1.435       .  S
C272        C273   1.410       .  A
C273        C274   1.394       .  A
C273        H276   1.085       .  S
C274        C277   1.446       .  S
C277        N279   1.157       .  T
C278        N280   1.154       .  T
C281        C286   1.423       .  A
C281        C898   1.400       .  A
C282        C283   1.397       .  A
C282        C897   1.400   1_545  A
C282        H287   1.085       .  S
C283        C284   1.422   1_545  A
C283        C290   1.446       .  S
C284        C901   1.400       .  A
C285        C286   1.401       .  A
C285        C900   1.400       .  A
C285        H288   1.085       .  S
C286        C289   1.445       .  S
C289        N291   1.158       .  T
C290        N292   1.158       .  T
C293        C298   1.411       .  A
C293        C910   1.410       .  A
C294        C295   1.406       .  A
C294        C909   1.410   1_545  A
C294        H299   1.085       .  S
C295        C296   1.411       .  A
C295        C302   1.444       .  S
C296        C913   1.408   1_545  A
C297        C298   1.397       .  A
C297        C912   1.408       .  A
C297        H300   1.085       .  S
C298        C301   1.445       .  S
C301        N303   1.157       .  T
C302        N304   1.157       .  T
C305        C306   1.401       .  A
C305        C310   1.417       .  A
C306        C307   1.396       .  A
C306        H311   1.079       .  S
C307        C308   1.414       .  A
C307        C314   1.441   1_554  S
C308        C309   1.413       .  A
C309        C310   1.421       .  A
C309        H312   1.084       .  S
C310        C313   1.442       .  S
C313        N315   1.157       .  T
C314        N316   1.156       .  T
C317        C318   1.414       .  A
C317        C322   1.412       .  A
C318        C319   1.418       .  A
C318        H323   1.084       .  S
C319        C320   1.410       .  A
C319        C326   1.441       .  S
C320        C321   1.390       .  A
C321        C322   1.383       .  A
C321        H324   1.075       .  S
C322        C325   1.438   1_556  S
C325        N327   1.157       .  T
C326        N328   1.157       .  T
C329        C330   1.403       .  A
C329        C334   1.412       .  A
C330        C331   1.385       .  A
C330        H335   1.086       .  S
C331        C332   1.406       .  A
C331        C338   1.438       .  S
C332        C333   1.410       .  A
C333        C334   1.415       .  A
C333        H336   1.084       .  S
C334        C337   1.442       .  S
C337        N339   1.157       .  T
C338        N340   1.155       .  T
C341        C342   1.389       .  A
C341        C346   1.424       .  A
C342        C343   1.388       .  A
C342        H347   1.079       .  S
C343        C344   1.433       .  A
C343        C350   1.446       .  S
C344        C345   1.405       .  A
C345        C346   1.416       .  A
C345        H348   1.084       .  S
C346        C349   1.443       .  S
C349        N351   1.157       .  T
C350        N352   1.157       .  T
C353        C354   1.402       .  A
C353        C358   1.422       .  A
C354        C355   1.393       .  A
C354        H359   1.085       .  S
C355        C356   1.405       .  A
C355        C362   1.443       .  S
C356        C357   1.388       .  A
C357        C358   1.383       .  A
C357        H360   1.087       .  S
C358        C361   1.445       .  S
C361        N363   1.157       .  T
C362        N364   1.157       .  T
C365        C366   1.391       .  A
C365        C370   1.411       .  A
C366        C367   1.382       .  A
C366        H371   1.086       .  S
C367        C368   1.420       .  A
C367        C374   1.447       .  S
C368        C369   1.409       .  A
C369        C370   1.415       .  A
C369        H372   1.084       .  S
C370        C373   1.442       .  S
C373        N375   1.157       .  T
C374        N376   1.158       .  T
C377        C382   1.403       .  A
C377       C1610   1.409       .  A
C378        C379   1.398       .  A
C378       C1609   1.409   1_455  A
C378        H383   1.085       .  S
C379        C380   1.410   1_455  A
C379        C386   1.444       .  S
C380       C1613   1.416       .  A
C381        C382   1.402       .  A
C381       C1612   1.416       .  A
C381        H384   1.085       .  S
C382        C385   1.444       .  S
C385        N387   1.157       .  T
C386        N388   1.157       .  T
C389        C394   1.420       .  A
C389       C1622   1.400       .  A
C390        C391   1.398       .  A
C390       C1621   1.400       .  A
C390        H395   1.085       .  S
C391        C392   1.419       .  A
C391        C398   1.445       .  S
C392       C1625   1.398       .  A
C393        C394   1.398       .  A
C393       C1624   1.398       .  A
C393        H396   1.084       .  S
C394        C397   1.444       .  S
C397        N399   1.157       .  T
C398        N400   1.157       .  T
C401        C402   1.414       .  A
C401        C406   1.415       .  A
C402        C403   1.416       .  A
C402        H407   1.085       .  S
C403        C404   1.410       .  A
C403        C410   1.438       .  S
C404        C405   1.415       .  A
C405        C406   1.421       .  A
C405        H408   1.082       .  S
C406        C409   1.438       .  S
C409        N411   1.156       .  T
C410        N412   1.156       .  T
C413        C414   1.396       .  A
C413        C418   1.419       .  A
C414        C415   1.401   1_556  A
C414        H419   1.085   1_556  S
C415        C416   1.423   1_554  A
C415        C422   1.444       .  S
C416        C417   1.409       .  A
C417        C418   1.423       .  A
C417        H420   1.084       .  S
C418        C421   1.442       .  S
C421        N423   1.157       .  T
C422        N424   1.157       .  T
C425        C426   1.405   1_556  A
C425        C430   1.409       .  A
C426        C427   1.405       .  A
C426        H431   1.084       .  S
C427        C428   1.407       .  A
C427        C434   1.444       .  S
C428        C429   1.408   1_554  A
C429        C430   1.404       .  A
C429        H432   1.083       .  S
C430        C433   1.444       .  S
C433        N435   1.157       .  T
C434        N436   1.157       .  T
C437        C438   1.411       .  A
C437        C442   1.418       .  A
C438        C439   1.382   1_556  A
C438        H443   1.084       .  S
C439        C440   1.407       .  A
C439        C446   1.446       .  S
C440        C441   1.414       .  A
C441        C442   1.423   1_554  A
C441        H444   1.084       .  S
C442        C445   1.442       .  S
C445        N447   1.157       .  T
C446        N448   1.156       .  T
C449        C450   1.403       .  A
C449        C454   1.409       .  A
C450        C451   1.407       .  A
C450        H455   1.085       .  S
C451        C452   1.416       .  A
C451        C458   1.443       .  S
C452        C453   1.402       .  A
C453        C454   1.374       .  A
C453        H456   1.085       .  S
C454        C457   1.448       .  S
C457        N459   1.158       .  T
C458        N460   1.157       .  T
C461        C462   1.403       .  A
C461        C466   1.408       .  A
C462        C463   1.397       .  A
C462        H467   1.085       .  S
C463        C464   1.408       .  A
C463        C470   1.439       .  S
C464        C465   1.408       .  A
C465        C466   1.389       .  A
C465        H468   1.085       .  S
C466        C469   1.445       .  S
C469        N471   1.157       .  T
C470        N472   1.156       .  T
C473        C478   1.419       .  A
C473       C1090   1.414       .  A
C474        C475   1.412       .  A
C474       C1089   1.414   1_545  A
C474        H479   1.084       .  S
C475       C1092   1.403       .  A
C475        C482   1.435       .  S
C476        C477   1.401       .  A
C476       C1091   1.403       .  A
C477        C478   1.405       .  A
C477        H480   1.085       .  S
C478        C481   1.438       .  S
C481        N483   1.156       .  T
C482        N484   1.156       .  T
C485        C490   1.411       .  A
C485       C1102   1.397   1_545  A
C486        C487   1.394       .  A
C486       C1101   1.397       .  A
C486        H491   1.079       .  S
C487       C1104   1.416       .  A
C487        C494   1.443       .  S
C488        C489   1.411       .  A
C488       C1103   1.416   1_545  A
C489        C490   1.412       .  A
C489        H492   1.084       .  S
C490        C493   1.442       .  S
C493        N495   1.157       .  T
C494        N496   1.157       .  T
C497        C498   1.407       .  A
C497       C1734   1.400   1_455  A
C498        C499   1.404       .  A
C498        H503   1.084       .  S
C499        C500   1.404       .  A
C499        C506   1.442       .  S
C500       C1733   1.412       .  A
C501        C502   1.397       .  A
C501       C1732   1.412       .  A
C501        H504   1.084       .  S
C502       C1729   1.400       .  A
C502        C505   1.444       .  S
C505        N507   1.157       .  T
C506        N508   1.157       .  T
C509        C514   1.411       .  A
C509       C1742   1.415       .  A
C510        C511   1.401       .  A
C510       C1741   1.415   1_455  A
C510        H515   1.084       .  S
C511       C1744   1.401       .  A
C511        C518   1.443       .  S
C512        C513   1.404       .  A
C512       C1743   1.401       .  A
C513        C514   1.398       .  A
C513        H516   1.081       .  S
C514        C517   1.442       .  S
C517        N519   1.157       .  T
C518        N520   1.157       .  T
C521       C1754   1.406       .  A
C521       C1142   1.412       .  A
C522        C523   1.408       .  A
C522       C1753   1.406       .  A
C522        H527   1.085       .  S
C523       C2372   1.409       .  A
C523        C530   1.442       .  S
C524        C525   1.396       .  A
C524       C2371   1.409       .  A
C525        C526   1.389       .  A
C525        H528   1.086       .  S
C526       C1137   1.412       .  A
C526        C529   1.446       .  S
C529        N531   1.157       .  T
C530        N532   1.157       .  T
C533        C538   1.424       .  A
C533       C2382   1.410       .  A
C534        C535   1.406       .  A
C534       C2381   1.410       .  A
C534        H539   1.084   1_565  S
C535       C1768   1.408       .  A
C535        C542   1.443   1_565  S
C536       C1767   1.408       .  A
C536       C1153   1.395       .  A
C537        C538   1.396       .  A
C537       C1152   1.395       .  A
C537        H540   1.086   1_655  S
C538        C541   1.446   1_655  S
C541        N543   1.158       .  T
C542        N544   1.157       .  T
C545        C546   1.419   1_554  A
C545        C550   1.401       .  A
C546        C547   1.400       .  A
C546        H551   1.084       .  S
C547        C548   1.399       .  A
C547        C554   1.443       .  S
C548        C549   1.416   1_556  A
C549        C550   1.398       .  A
C549        H552   1.085       .  S
C550        C553   1.444       .  S
C553        N555   1.157       .  T
C554        N556   1.157       .  T
C557        C558   1.409   1_554  A
C557        C562   1.406       .  A
C558        C559   1.397       .  A
C558        H563   1.075       .  S
C559        C560   1.400       .  A
C559        C566   1.442       .  S
C560        C561   1.406   1_556  A
C561        C562   1.404       .  A
C561        H564   1.079       .  S
C562        C565   1.443       .  S
C565        N567   1.157       .  T
C566        N568   1.156       .  T
C569        C642   1.481       .  S
C569        C574   1.415       .  A
C569       C1186   1.409       .  A
C570        C571   1.421       .  A
C570       C1185   1.409       .  A
C570        H575   1.084       .  S
C571       C1188   1.419       .  A
C571        C578   1.442       .  S
C572        C573   1.396   1_556  A
C572       C1187   1.419       .  A
C573        C574   1.372   1_554  A
C573        H576   1.085       .  S
C574        C577   1.445   1_556  S
C577        N579   1.157       .  T
C578        N580   1.157       .  T
C581        C582   1.414       .  A
C581        C586   1.415       .  A
C582        C583   1.421       .  A
C582        H587   1.084       .  S
C583        C584   1.412       .  A
C583        C590   1.441       .  S
C584        C627   1.484       .  S
C584       C1201   1.400       .  A
C585       C1200   1.400       .  A
C585       C1202   1.389       .  A
C585        H588   1.088   1_554  S
C586       C1201   1.389       .  A
C586       C1205   1.441   1_554  S
C589       C1202   1.441   1_556  S
C589        N591   1.158       .  T
C590        N592   1.157       .  T
C593        C594   1.406       .  A
C593       C1830   1.416       .  A
C594        C595   1.409       .  A
C594        H599   1.085       .  S
C595       C1828   1.417       .  A
C595        C602   1.435       .  S
C596        C597   1.407   1_655  A
C596       C1827   1.417       .  A
C597        C598   1.397       .  A
C597        H600   1.082       .  S
C598       C1825   1.416   1_455  A
C598        C601   1.447       .  S
C601        N603   1.157       .  T
C602        N604   1.155       .  T
C605        C610   1.407   1_655  A
C605       C1838   1.411       .  A
C606        C607   1.407   1_554  A
C606       C1837   1.411       .  A
C606        H611   1.056       .  S
C607        C608   1.399   1_556  A
C607        C614   1.443       .  S
C608       C1841   1.417       .  A
C609        C610   1.411       .  A
C609       C1840   1.417   1_455  A
C609        H612   1.082       .  S
C610        C613   1.441       .  S
C613        N615   1.157       .  T
C614        N616   1.157       .  T
O617        C625   1.258       .  A
O617      Co1869   2.022   1_455  S
O618       C1858   1.237   1_455  A
O618       Co638   1.939   1_556  S
O619       Co639   2.058       .  S
O620       Co640   1.982       .  S
O621        C627   1.258   1_565  A
O621       Co638   1.919       .  S
O622        C628   1.254       .  A
O622       Co637   1.968       .  S
O623        C626   1.265       .  A
O623       Co640   2.060       .  S
O624        C625   1.241   1_554  A
O624       Co639   1.956       .  S
C625       C1176   1.470       .  S
C626       O1850   1.237       .  A
C626       C1209   1.494       .  S
C628       C1140   1.464       .  S
O629        C642   1.274       .  A
O629       Co637   1.947       .  S
O630        C643   1.260   1_455  A
O630       Co638   1.987       .  S
O631        C644   1.283   1_455  A
O631       Co639   1.977       .  S
O632        C645   1.234       .  A
O632       Co640   1.927   1_554  S
O633        C645   1.269       .  A
O633      Co1870   2.063       .  S
O634       C1876   1.285       .  A
O634       Co637   2.028   1_554  S
O635       Co640   2.009       .  S
O636       Co639   1.986   1_655  S
Co637      O1849   2.022       .  S
Co637      O1873   2.067       .  S
Co638      O1865   2.063   1_455  S
Co639       O641   1.986   1_554  S
Co640      O1257   2.132       .  S
O641      Co1869   2.067   1_455  S
O641      Co1256   2.132   1_455  S
C643       C1149   1.493       .  S
C644       O1866   1.285       .  A
C644       C1221   1.513       .  S
C645       C1161   1.483       .  S
O646        C654   1.297   1_455  A
O646       Co666   2.090       .  S
O647        C655   1.267       .  A
O648        C656   1.271       .  A
O648       Co668   2.015   1_545  S
O649        C657   1.276       .  A
O649       Co669   1.884       .  S
O651        C657   1.298       .  A
O651       Co666   2.061       .  S
O652       C1887   1.244   1_455  A
O652       Co669   1.967       .  S
O653       C1270   1.264       .  A
O653       Co668   1.884       .  S
C654       O1269   1.264       .  A
C654       C1152   1.469       .  S
C655       O1884   1.244       .  A
C655       C1125   1.487       .  S
C656       C1092   1.488       .  S
C657       C1077   1.464       .  S
O658        C671   1.251       .  A
O658       Co666   1.995       .  S
O659        C672   1.262       .  A
O659       Co667   1.986       .  S
O660       C1905   1.248       .  A
O660       Co668   1.974       .  S
O661       C1290   1.274       .  A
O661       Co669   2.034       .  S
O662        C674   1.253   1_565  A
O662       Co667   1.942       .  S
O663        C673   1.250       .  A
O664        C671   1.245       .  A
O664       Co669   1.987       .  S
O665        C672   1.261       .  A
O665       Co668   1.957       .  S
Co666       O670   2.240   1_455  S
Co667      O1286   2.089       .  S
Co668      O1286   1.933       .  S
Co669       O670   1.902   1_455  S
O670      Co1283   2.089       .  S
O670      Co1284   1.933       .  S
C671       C1101   1.482       .  S
C672       C1068   1.475       .  S
C673       O1892   1.248   1_455  A
C673       C1113   1.470       .  S
C674       O1277   1.274       .  A
C674       C1137   1.465       .  S
O675        C683   1.272       .  A
O675       Co695   2.018   1_554  S
O676        C684   1.274   1_455  A
O676       Co696   2.031       .  S
O677        C685   1.285       .  A
O677       Co697   2.039       .  S
O678        C686   1.312       .  A
O678       Co698   2.119       .  S
O679        C685   1.263       .  A
O679       Co696   1.934       .  S
O680        C686   1.273       .  A
O680       Co695   1.904       .  S
O681        C684   1.267   1_556  A
O681      Co1930   1.984       .  S
O682        C683   1.274       .  A
O682      Co1929   2.050       .  S
C683       C1020   1.525       .  S
C684       C1212   1.499   1_554  S
C685       C1005   1.481       .  S
C686       C1041   1.483       .  S
O687        C700   1.302       .  A
O687       Co695   2.124       .  S
O688        C701   1.263       .  A
O688       Co696   2.024       .  S
O689       C1934   1.238   1_455  A
O689       Co697   1.934   1_556  S
O690        C703   1.273       .  A
O690      Co1930   2.092   1_455  S
O691        C703   1.238       .  A
O691       Co696   1.951   1_556  S
O692        C702   1.266       .  A
O692       Co695   2.059       .  S
O693        C700   1.256       .  A
O693       Co698   1.876       .  S
O694        C701   1.242       .  A
O694       Co697   1.927       .  S
Co695      O1931   2.074   1_556  S
Co696       O699   2.071       .  S
Co697      O1914   2.050   1_455  S
Co697       O699   2.023       .  S
Co698      O1913   1.984       .  S
Co698      O1922   2.092       .  S
Co698      O1931   2.014   1_556  S
O699      Co1927   2.074   1_454  S
O699      Co1930   2.014   1_454  S
C700        C993   1.475       .  S
C701       C1056   1.486       .  S
C702       O1921   1.238       .  A
C702       C1224   1.500   1_556  S
C703       C1032   1.508       .  S
O704        C712   1.248       .  A
O704       Co724   1.948       .  S
O705        C713   1.259       .  A
O705       Co725   2.044       .  S
O706        C714   1.243   1_655  A
O706       Co726   1.933   1_655  S
O707        C715   1.238       .  A
O707       Co727   1.929       .  S
O708        C714   1.261       .  A
O708       Co725   2.007       .  S
O709        C715   1.257       .  A
O709       Co724   2.015       .  S
O710       C1945   1.241       .  A
O710       Co727   1.943       .  S
O711        C712   1.274       .  A
O711      Co1958   2.054       .  S
C712        C948   1.476       .  S
C713       O1942   1.241   1_455  A
C713       C1116   1.479       .  S
C714        C996   1.485   1_455  S
C715        C969   1.462       .  S
O716        C729   1.249       .  A
O716       Co724   1.933       .  S
O717        C730   1.265       .  A
O717       Co725   1.905       .  S
O718       C1963   1.246       .  A
O718       Co726   1.963       .  S
O719        C732   1.261       .  A
O719      Co1959   2.008   1_455  S
O720        C732   1.269       .  A
O720       Co725   1.991       .  S
O721        C731   1.251       .  A
O721       Co724   1.990       .  S
O722        C729   1.275       .  A
O722       Co727   2.046       .  S
O723        C730   1.293       .  A
O723       Co726   2.070       .  S
Co724      O1960   2.104       .  S
Co725       O728   2.034   1_455  S
Co726      O1943   2.054   1_455  S
Co726       O728   2.156   1_455  S
Co727      O1951   2.008       .  S
Co727      O1960   2.070       .  S
O728      Co1956   2.104       .  S
O728      Co1959   2.070       .  S
C729       C1008   1.479       .  S
C730        C981   1.468       .  S
C731       O1950   1.246       .  A
C731       C1128   1.471       .  S
C732        C957   1.495       .  S
O733        C741   1.275       .  A
O733       Co753   2.025       .  S
O734        C742   1.257   1_556  A
O734       Co754   1.994       .  S
O735        C743   1.268       .  A
O735       Co755   1.931       .  S
O736        C744   1.253       .  A
O736       Co756   1.935       .  S
O737        C743   1.300       .  A
O737       Co754   2.115       .  S
O738        C744   1.276       .  A
O738       Co753   2.045       .  S
O739        C742   1.261       .  A
O740       Co755   1.990   1_554  S
C741       C1197   1.494       .  S
C742        C924   1.503       .  S
C743       C1029   1.499       .  S
C744        C912   1.485       .  S
O745        C758   1.255       .  A
O745       Co753   1.959       .  S
O746        C759   1.256       .  A
O746       Co754   1.893       .  S
O747        C760   1.265       .  A
O748       Co756   1.980       .  S
O749        C761   1.268       .  A
O749       Co754   1.997   1_545  S
O750        C760   1.251       .  A
O750       Co753   1.974   1_556  S
O751        C758   1.284       .  A
O751       Co756   2.089       .  S
O752        C759   1.297   1_545  A
O752       Co755   2.102   1_545  S
Co753       O757   2.053       .  S
Co756       O757   2.042       .  S
C758       C1017   1.521       .  S
C759        C897   1.487       .  S
C760        C933   1.487       .  S
C761       C1188   1.491       .  S
O762        C770   1.262       .  A
O762       Co782   2.021       .  S
O763        C771   1.226       .  A
O763       Co783   1.930       .  S
O764        C772   1.276       .  A
O764       Co784   2.080   1_565  S
O765        C773   1.263       .  A
O765       Co785   1.989       .  S
O766        C772   1.238       .  A
O766       Co783   1.923       .  S
O767        C773   1.254       .  A
O767       Co782   1.963       .  S
O768        C771   1.261       .  A
O769       Co784   1.973   1_565  S
C770       C1104   1.495       .  S
C771        C873   1.470       .  S
C772        C960   1.503       .  S
C773        C900   1.487       .  S
O774        C787   1.275       .  A
O774       Co782   1.941       .  S
O775        C788   1.268       .  A
O775       Co783   2.026       .  S
O776        C789   1.278       .  A
O777       Co785   1.973       .  S
O778        C790   1.276       .  A
O778       Co783   2.067       .  S
O779        C789   1.292       .  A
O779       Co782   2.027       .  S
O780        C787   1.284       .  A
O780       Co785   2.023       .  S
O781        C788   1.249   1_545  A
O781       Co784   1.977       .  S
Co783       O786   2.022       .  S
Co784       O786   1.972   1_545  S
C787        C945   1.485       .  S
C788        C909   1.485       .  S
C789        C885   1.481       .  S
C790       C1089   1.510       .  S
O791        C799   1.276       .  A
O791       Co811   2.002   1_554  S
O792        C800   1.266       .  A
O792       Co812   2.040       .  S
O793        C801   1.259       .  A
O793       Co813   1.990       .  S
O794        C802   1.282       .  A
O794       Co814   1.954       .  S
O795        C801   1.269       .  A
O795       Co812   2.026       .  S
O796        C802   1.286       .  A
O796       Co811   2.022       .  S
O797        C800   1.252       .  A
O797       Co814   1.998   1_554  S
O798        C799   1.281       .  A
O798       Co813   1.960       .  S
C799       C1173   1.482       .  S
C800        C921   1.504       .  S
C801        C861   1.487       .  S
C802       C1053   1.505       .  S
O803        C816   1.246       .  A
O803       Co811   1.936       .  S
O804        C817   1.253       .  A
O804       Co812   1.940       .  S
O805        C818   1.237       .  A
O805       Co813   1.977   1_556  S
O806        C819   1.276       .  A
O806       Co814   2.056       .  S
O807        C819   1.243       .  A
O807       Co812   1.941   1_556  S
O808        C818   1.252       .  A
O808       Co811   2.016       .  S
O809        C816   1.264       .  A
O809       Co814   2.025       .  S
O810        C817   1.277       .  A
O810       Co813   2.034       .  S
Co811       O815   2.203       .  S
Co812       O815   2.079   1_554  S
Co813       O815   1.966   1_554  S
Co814       O815   2.016       .  S
C816        C852   1.484       .  S
C817       C1044   1.472       .  S
C818        C936   1.481       .  S
C819       C1164   1.480       .  S
O820        C828   1.271       .  A
O820       Co840   2.042       .  S
O821        C829   1.240       .  A
O821       Co841   1.984       .  S
O822        C830   1.288       .  A
O822       Co842   2.023       .  S
O823        C831   1.270       .  A
O823       Co843   1.971       .  S
O824        C830   1.278       .  A
O824       Co841   1.959       .  S
O825        C831   1.277       .  A
O825       Co840   2.032       .  S
O826        C829   1.244       .  A
O826       Co843   1.993       .  S
O827        C828   1.247       .  A
O827       Co842   1.948       .  S
C828       C1080   1.474       .  S
C829        C876   1.477       .  S
C830        C984   1.482       .  S
C831        C864   1.501       .  S
O832        C845   1.246       .  A
O832       Co840   1.936       .  S
O833        C846   1.248       .  A
O833       Co841   1.953       .  S
O834        C847   1.259       .  A
O834       Co842   2.053       .  S
O835        C848   1.252       .  A
O835       Co843   1.955       .  S
O836        C848   1.263       .  A
O836       Co841   2.006       .  S
O837        C847   1.232       .  A
O837       Co840   1.938       .  S
O838        C845   1.252       .  A
O838       Co843   1.993       .  S
O839        C846   1.266       .  A
O839       Co842   2.023       .  S
Co840       O844   2.052       .  S
Co841       O844   1.979       .  S
Co842       O844   2.197       .  S
Co843       O844   2.113       .  S
C845        C972   1.438       .  S
C846        C849   1.497       .  S
C847        C888   1.490       .  S
C848       C1065   1.459       .  S
C849        C850   1.415       .  A
C849        C854   1.419       .  A
C850        C851   1.415       .  A
C850        H855   1.084       .  S
C851        C852   1.410       .  A
C851        C858   1.443       .  S
C852        C853   1.402       .  A
C853        C854   1.395       .  A
C853        H856   1.086       .  S
C854        C857   1.446       .  S
C857        N859   1.157       .  T
C858        N860   1.157       .  T
C861        C862   1.402       .  A
C861        C866   1.411       .  A
C862        C863   1.405       .  A
C862        H867   1.085       .  S
C863        C864   1.421       .  A
C863        C870   1.443       .  S
C864        C865   1.409       .  A
C865        C866   1.407       .  A
C865        H868   1.085       .  S
C866        C869   1.440       .  S
C869        N871   1.156       .  T
C870        N872   1.157       .  T
C873        C874   1.412       .  A
C873        C878   1.399       .  A
C874        C875   1.397       .  A
C874        H879   1.081       .  S
C875        C876   1.398       .  A
C875        C882   1.444       .  S
C876        C877   1.412       .  A
C877        C878   1.400       .  A
C877        H880   1.073       .  S
C878        C881   1.444       .  S
C881        N883   1.157       .  T
C882        N884   1.157       .  T
C885        C886   1.408       .  A
C885        C890   1.411       .  A
C886        C887   1.404       .  A
C886        H891   1.085       .  S
C887        C888   1.409       .  A
C887        C894   1.435       .  S
C888        C889   1.410       .  A
C889        C890   1.394       .  A
C889        H892   1.085       .  S
C890        C893   1.446       .  S
C893        N895   1.157       .  T
C894        N896   1.154       .  T
C897        C902   1.423       .  A
C898        C899   1.397       .  A
C898        H903   1.085       .  S
C899        C900   1.422       .  A
C899        C906   1.446       .  S
C901        C902   1.401       .  A
C901        H904   1.085       .  S
C902        C905   1.445       .  S
C905        N907   1.158       .  T
C906        N908   1.158       .  T
C909        C914   1.411       .  A
C910        C911   1.406       .  A
C910        H915   1.085       .  S
C911        C912   1.411       .  A
C911        C918   1.444       .  S
C913        C914   1.397       .  A
C913        H916   1.085       .  S
C914        C917   1.445       .  S
C917        N919   1.157       .  T
C918        N920   1.157       .  T
C921        C922   1.401       .  A
C921        C926   1.417       .  A
C922        C923   1.396       .  A
C922        H927   1.079       .  S
C923        C924   1.414       .  A
C923        C930   1.441   1_554  S
C924        C925   1.413       .  A
C925        C926   1.421       .  A
C925        H928   1.084       .  S
C926        C929   1.442       .  S
C929        N931   1.157       .  T
C930        N932   1.156       .  T
C933        C934   1.414       .  A
C933        C938   1.412       .  A
C934        C935   1.418       .  A
C934        H939   1.084       .  S
C935        C936   1.410       .  A
C935        C942   1.441       .  S
C936        C937   1.390       .  A
C937        C938   1.383       .  A
C937        H940   1.075       .  S
C938        C941   1.438   1_556  S
C941        N943   1.157       .  T
C942        N944   1.157       .  T
C945        C946   1.403       .  A
C945        C950   1.412       .  A
C946        C947   1.385       .  A
C946        H951   1.086       .  S
C947        C948   1.406       .  A
C947        C954   1.438       .  S
C948        C949   1.410       .  A
C949        C950   1.415       .  A
C949        H952   1.084       .  S
C950        C953   1.442       .  S
C953        N955   1.157       .  T
C954        N956   1.155       .  T
C957        C958   1.389       .  A
C957        C962   1.424       .  A
C958        C959   1.388       .  A
C958        H963   1.079       .  S
C959        C960   1.433       .  A
C959        C966   1.446       .  S
C960        C961   1.405       .  A
C961        C962   1.416       .  A
C961        H964   1.084       .  S
C962        C965   1.443       .  S
C965        N967   1.157       .  T
C966        N968   1.157       .  T
C969        C970   1.402       .  A
C969        C974   1.422       .  A
C970        C971   1.393       .  A
C970        H975   1.085       .  S
C971        C972   1.405       .  A
C971        C978   1.443       .  S
C972        C973   1.388       .  A
C973        C974   1.383       .  A
C973        H976   1.087       .  S
C974        C977   1.445       .  S
C977        N979   1.157       .  T
C978        N980   1.157       .  T
C981        C982   1.391       .  A
C981        C986   1.411       .  A
C982        C983   1.382       .  A
C982        H987   1.086       .  S
C983        C984   1.420       .  A
C983        C990   1.447       .  S
C984        C985   1.409       .  A
C985        C986   1.415       .  A
C985        H988   1.084       .  S
C986        C989   1.442       .  S
C989        N991   1.157       .  T
C990        N992   1.158       .  T
C993       C2226   1.409       .  A
C993        C998   1.403       .  A
C994       C2225   1.409   1_455  A
C994        C995   1.398       .  A
C994        H999   1.085       .  S
C995        C996   1.410   1_455  A
C995       C1002   1.444       .  S
C996       C2229   1.416       .  A
C997       C2228   1.416       .  A
C997        C998   1.402       .  A
C997       H1000   1.085       .  S
C998       C1001   1.444       .  S
C1001      N1003   1.157       .  T
C1002      N1004   1.157       .  T
C1005      C2238   1.400       .  A
C1005      C1010   1.420       .  A
C1006      C2237   1.400       .  A
C1006      C1007   1.398       .  A
C1006      H1011   1.085       .  S
C1007      C1008   1.419       .  A
C1007      C1014   1.445       .  S
C1008      C2241   1.398       .  A
C1009      C2240   1.398       .  A
C1009      C1010   1.398       .  A
C1009      H1012   1.084       .  S
C1010      C1013   1.444       .  S
C1013      N1015   1.157       .  T
C1014      N1016   1.157       .  T
C1017      C1018   1.414       .  A
C1017      C1022   1.415       .  A
C1018      C1019   1.416       .  A
C1018      H1023   1.085       .  S
C1019      C1020   1.410       .  A
C1019      C1026   1.438       .  S
C1020      C1021   1.415       .  A
C1021      C1022   1.421       .  A
C1021      H1024   1.082       .  S
C1022      C1025   1.438       .  S
C1025      N1027   1.156       .  T
C1026      N1028   1.156       .  T
C1029      C1030   1.396       .  A
C1029      C1034   1.419       .  A
C1030      C1031   1.401   1_556  A
C1030      H1035   1.085   1_556  S
C1031      C1032   1.423   1_554  A
C1031      C1038   1.444       .  S
C1032      C1033   1.409       .  A
C1033      C1034   1.423       .  A
C1033      H1036   1.084       .  S
C1034      C1037   1.442       .  S
C1037      N1039   1.157       .  T
C1038      N1040   1.157       .  T
C1041      C1042   1.405   1_556  A
C1041      C1046   1.409       .  A
C1042      C1043   1.405       .  A
C1042      H1047   1.084       .  S
C1043      C1044   1.407       .  A
C1043      C1050   1.444       .  S
C1044      C1045   1.408   1_554  A
C1045      C1046   1.404       .  A
C1045      H1048   1.083       .  S
C1046      C1049   1.444       .  S
C1049      N1051   1.157       .  T
C1050      N1052   1.157       .  T
C1053      C1054   1.411       .  A
C1053      C1058   1.418       .  A
C1054      C1055   1.382   1_556  A
C1054      H1059   1.084       .  S
C1055      C1056   1.407       .  A
C1055      C1062   1.446       .  S
C1056      C1057   1.414       .  A
C1057      C1058   1.423   1_554  A
C1057      H1060   1.084       .  S
C1058      C1061   1.442       .  S
C1061      N1063   1.157       .  T
C1062      N1064   1.156       .  T
C1065      C1066   1.403       .  A
C1065      C1070   1.409       .  A
C1066      C1067   1.407       .  A
C1066      H1071   1.085       .  S
C1067      C1068   1.416       .  A
C1067      C1074   1.443       .  S
C1068      C1069   1.402       .  A
C1069      C1070   1.374       .  A
C1069      H1072   1.085       .  S
C1070      C1073   1.448       .  S
C1073      N1075   1.158       .  T
C1074      N1076   1.157       .  T
C1077      C1078   1.403       .  A
C1077      C1082   1.408       .  A
C1078      C1079   1.397       .  A
C1078      H1083   1.085       .  S
C1079      C1080   1.408       .  A
C1079      C1086   1.439       .  S
C1080      C1081   1.408       .  A
C1081      C1082   1.389       .  A
C1081      H1084   1.085       .  S
C1082      C1085   1.445       .  S
C1085      N1087   1.157       .  T
C1086      N1088   1.156       .  T
C1089      C1094   1.419       .  A
C1090      C1091   1.412       .  A
C1090      H1095   1.084       .  S
C1091      C1098   1.435       .  S
C1092      C1093   1.401   1_545  A
C1093      C1094   1.405       .  A
C1093      H1096   1.085       .  S
C1094      C1097   1.438       .  S
C1097      N1099   1.156       .  T
C1098      N1100   1.156       .  T
C1101      C1106   1.411       .  A
C1102      C1103   1.394       .  A
C1102      H1107   1.079       .  S
C1103      C1110   1.443       .  S
C1104      C1105   1.411       .  A
C1105      C1106   1.412       .  A
C1105      H1108   1.084       .  S
C1106      C1109   1.442       .  S
C1109      N1111   1.157       .  T
C1110      N1112   1.157       .  T
C1113      C1114   1.407       .  A
C1113      C2350   1.400   1_455  A
C1114      C1115   1.404       .  A
C1114      H1119   1.084       .  S
C1115      C1116   1.404       .  A
C1115      C1122   1.442       .  S
C1116      C2349   1.412       .  A
C1117      C2348   1.412       .  A
C1117      C1118   1.397       .  A
C1117      H1120   1.084       .  S
C1118      C2345   1.400       .  A
C1118      C1121   1.444       .  S
C1121      N1123   1.157       .  T
C1122      N1124   1.157       .  T
C1125      C2358   1.415       .  A
C1125      C1130   1.411       .  A
C1126      C2357   1.415   1_455  A
C1126      C1127   1.401       .  A
C1126      H1131   1.084       .  S
C1127      C2360   1.401       .  A
C1127      C1134   1.443       .  S
C1128      C2359   1.401       .  A
C1128      C1129   1.404       .  A
C1129      C1130   1.398       .  A
C1129      H1132   1.081       .  S
C1130      C1133   1.442       .  S
C1133      N1135   1.157       .  T
C1134      N1136   1.157       .  T
C1137      C2370   1.406       .  A
C1138      C2369   1.406       .  A
C1138      C1139   1.408       .  A
C1138      H1143   1.085       .  S
C1139      C1756   1.409       .  A
C1139      C1146   1.442       .  S
C1140      C1755   1.409       .  A
C1140      C1141   1.396       .  A
C1141      C1142   1.389       .  A
C1141      H1144   1.086       .  S
C1142      C1145   1.446       .  S
C1145      N1147   1.157       .  T
C1146      N1148   1.157       .  T
C1149      C1766   1.410       .  A
C1149      C1154   1.424       .  A
C1150      C1765   1.410       .  A
C1150      C1151   1.406       .  A
C1150      H1155   1.084       .  S
C1151      C2384   1.408       .  A
C1151      C1158   1.443       .  S
C1152      C2383   1.408       .  A
C1153      C1154   1.396       .  A
C1153      H1156   1.086   1_655  S
C1154      C1157   1.446   1_655  S
C1157      N1159   1.158       .  T
C1158      N1160   1.157       .  T
C1161      C1162   1.419   1_554  A
C1161      C1166   1.401       .  A
C1162      C1163   1.400       .  A
C1162      H1167   1.084       .  S
C1163      C1164   1.399       .  A
C1163      C1170   1.443       .  S
C1164      C1165   1.416   1_556  A
C1165      C1166   1.398       .  A
C1165      H1168   1.085       .  S
C1166      C1169   1.444       .  S
C1169      N1171   1.157       .  T
C1170      N1172   1.157       .  T
C1173      C1174   1.409   1_554  A
C1173      C1178   1.406       .  A
C1174      C1175   1.397       .  A
C1174      H1179   1.075       .  S
C1175      C1176   1.400       .  A
C1175      C1182   1.442       .  S
C1176      C1177   1.406   1_556  A
C1177      C1178   1.404       .  A
C1177      H1180   1.079       .  S
C1178      C1181   1.443       .  S
C1181      N1183   1.157       .  T
C1182      N1184   1.156       .  T
C1185      C1190   1.415       .  A
C1186      C1187   1.421       .  A
C1186      H1191   1.084       .  S
C1187      C1194   1.442       .  S
C1188      C1189   1.396   1_556  A
C1189      C1190   1.372   1_554  A
C1189      H1192   1.085   1_545  S
C1190      C1193   1.445   1_546  S
C1193      N1195   1.157       .  T
C1194      N1196   1.157       .  T
C1197      C1198   1.414       .  A
C1197      C1202   1.415       .  A
C1198      C1199   1.421       .  A
C1198      H1203   1.084       .  S
C1199      C1200   1.412       .  A
C1199      C1206   1.441       .  S
C1201      H1204   1.088   1_554  S
C1205      N1207   1.158       .  T
C1206      N1208   1.157       .  T
C1209      C1210   1.406       .  A
C1209      C2446   1.416       .  A
C1210      C1211   1.409       .  A
C1210      H1215   1.085       .  S
C1211      C2444   1.417       .  A
C1211      C1218   1.435       .  S
C1212      C2443   1.417       .  A
C1212      C1213   1.407   1_655  A
C1213      C1214   1.397       .  A
C1213      H1216   1.082       .  S
C1214      C2441   1.416   1_455  A
C1214      C1217   1.447       .  S
C1217      N1219   1.157       .  T
C1218      N1220   1.155       .  T
C1221      C2454   1.411       .  A
C1221      C1226   1.407   1_655  A
C1222      C2453   1.411       .  A
C1222      C1223   1.407   1_554  A
C1222      H1227   1.056       .  S
C1223      C1224   1.399   1_556  A
C1223      C1230   1.443       .  S
C1224      C2457   1.417       .  A
C1225      C2456   1.417   1_455  A
C1225      C1226   1.411       .  A
C1225      H1228   1.082       .  S
C1226      C1229   1.441       .  S
C1229      N1231   1.157       .  T
C1230      N1232   1.157       .  T
O1233      C1241   1.258       .  A
O1234     Co1254   1.939   1_556  S
O1235      C1859   1.284       .  A
O1235     Co1255   2.058       .  S
O1236      C1860   1.261   1_655  A
O1236     Co1256   1.982       .  S
O1237      C1243   1.258       .  A
O1237     Co1254   1.919       .  S
O1238      C1244   1.254       .  A
O1238     Co1253   1.968   1_455  S
O1239      C1242   1.265       .  A
O1239     Co1256   2.060       .  S
O1240      C1241   1.241   1_554  A
O1240     Co1255   1.956       .  S
C1241      C1792   1.470       .  S
C1242      C1825   1.494       .  S
C1243      O1851   1.284       .  A
C1243      C2432   1.484       .  S
C1244      O1852   1.261   1_445  A
C1244      C1756   1.464       .  S
O1245      C1258   1.274       .  A
O1245     Co1253   1.947       .  S
O1246      C1259   1.260       .  A
O1246     Co1254   1.987       .  S
O1247      C1260   1.283       .  A
O1247     Co1255   1.977       .  S
O1248      C1261   1.234       .  A
O1248     Co1256   1.927   1_554  S
O1249      C1261   1.269       .  A
O1250     Co1253   2.028   1_554  S
O1251      C1874   1.275       .  A
O1251     Co1256   2.009       .  S
O1252      C1875   1.260       .  A
O1252     Co1255   1.986   1_565  S
Co1254     O1873   2.084   1_554  S
Co1255     O1257   1.986   1_544  S
O1257     Co1870   2.084   1_556  S
C1258      O1867   1.275   1_545  A
C1258      C2417   1.481       .  S
C1259      O1868   1.260       .  A
C1259      C1765   1.493       .  S
C1260      C1837   1.513       .  S
C1261      C1777   1.483       .  S
O1262      C1270   1.297       .  A
O1262     Co1282   2.090   1_565  S
O1263      C1271   1.267       .  A
O1263     Co1899   2.040   1_545  S
O1264      C1272   1.271       .  A
O1264     Co1284   2.015       .  S
O1265      C1273   1.276       .  A
O1265     Co1285   1.884       .  S
O1266      C1888   1.265   1_565  A
O1266     Co1899   1.998       .  S
O1267      C1273   1.298       .  A
O1267     Co1282   2.061       .  S
O1268     Co1285   1.967       .  S
O1269     Co1284   1.884       .  S
C1270      C1768   1.469       .  S
C1271      C1741   1.487       .  S
C1272      O1882   1.265       .  A
C1272      C1708   1.488       .  S
C1273      C1693   1.464       .  S
O1274      C1287   1.251       .  A
O1274     Co1282   1.995       .  S
O1275      C1288   1.262       .  A
O1275     Co1283   1.986       .  S
O1276     Co1284   1.974       .  S
O1277     Co1285   2.034       .  S
O1278      C1290   1.253   1_655  A
O1278     Co1283   1.942       .  S
O1279      C1289   1.250       .  A
O1279     Co1898   1.979       .  S
O1280      C1287   1.245       .  A
O1280     Co1285   1.987       .  S
O1281      C1288   1.261       .  A
O1281     Co1284   1.957       .  S
Co1282     O1895   1.979   1_545  S
Co1282     O1286   2.240   1_545  S
Co1283     O1879   2.040       .  S
Co1283     O1882   1.998       .  S
Co1285     O1286   1.902   1_545  S
C1287      C1717   1.482       .  S
C1288      C1684   1.475       .  S
C1289      C1729   1.470       .  S
C1290      C1753   1.465       .  S
O1291      C1299   1.272       .  A
O1291     Co1311   2.018   1_554  S
O1292      C1300   1.274       .  A
O1292     Co1312   2.031       .  S
O1293      C1301   1.285       .  A
O1293     Co1313   2.039       .  S
O1294      C1302   1.312       .  A
O1294     Co1314   2.119       .  S
O1295      C1301   1.263       .  A
O1295     Co1312   1.934       .  S
O1296      C1302   1.273       .  A
O1296     Co1311   1.904       .  S
O1297      C1300   1.267   1_556  A
O1298      C1299   1.274       .  A
C1299      C1636   1.525       .  S
C1300      C1828   1.499   1_554  S
C1301      C1621   1.481       .  S
C1302      C1657   1.483       .  S
O1303      C1316   1.302       .  A
O1303     Co1311   2.124       .  S
O1304      C1317   1.263       .  A
O1304     Co1312   2.024       .  S
O1305     Co1313   1.934   1_556  S
O1306      C1319   1.273       .  A
O1307      C1319   1.238       .  A
O1307     Co1312   1.951   1_556  S
O1308      C1318   1.266       .  A
O1308     Co1311   2.059       .  S
O1309      C1316   1.256       .  A
O1309     Co1314   1.876       .  S
O1310      C1317   1.242       .  A
O1310     Co1313   1.927       .  S
Co1312     O1315   2.071       .  S
Co1313     O1315   2.023       .  S
C1316      C1609   1.475       .  S
C1317      C1672   1.486       .  S
C1318      C1840   1.500   1_556  S
C1319      C1648   1.508       .  S
O1320      C1328   1.248       .  A
O1320     Co1340   1.948       .  S
O1321      C1329   1.259       .  A
O1321     Co1341   2.044       .  S
O1322      C1330   1.243       .  A
O1322     Co1342   1.933       .  S
O1323      C1331   1.238       .  A
O1323     Co1343   1.929       .  S
O1324      C1330   1.261       .  A
O1324     Co1341   2.007       .  S
O1325      C1331   1.257       .  A
O1325     Co1340   2.015       .  S
O1326     Co1343   1.943       .  S
O1327      C1328   1.274       .  A
C1328      C1564   1.476       .  S
C1329      C1732   1.479       .  S
C1330      C1612   1.485       .  S
C1331      C1585   1.462       .  S
O1332      C1345   1.249       .  A
O1332     Co1340   1.933   1_455  S
O1333      C1346   1.265       .  A
O1333     Co1341   1.905       .  S
O1334     Co1342   1.963       .  S
O1335      C1348   1.261       .  A
O1336      C1348   1.269       .  A
O1336     Co1341   1.991       .  S
O1337      C1347   1.251   1_655  A
O1337     Co1340   1.990       .  S
O1338      C1345   1.275   1_655  A
O1338     Co1343   2.046       .  S
O1339      C1346   1.293       .  A
O1339     Co1342   2.070       .  S
Co1341     O1344   2.034       .  S
Co1342     O1344   2.156       .  S
C1345      C1624   1.479       .  S
C1346      C1597   1.468       .  S
C1347      C1744   1.471       .  S
C1348      C1573   1.495       .  S
O1349      C1357   1.275       .  A
O1349     Co1369   2.025       .  S
O1350      C1358   1.257   1_556  A
O1350     Co1370   1.994       .  S
O1351      C1359   1.268       .  A
O1351     Co1371   1.931       .  S
O1352      C1360   1.253   1_565  A
O1352     Co1372   1.935       .  S
O1353      C1359   1.300       .  A
O1353     Co1370   2.115       .  S
O1354      C1360   1.276       .  A
O1354     Co1369   2.045       .  S
O1355      C1358   1.261       .  A
O1355     Co1988   2.017       .  S
O1356      C1973   1.266       .  A
O1356     Co1371   1.990   1_554  S
C1357      O1972   1.266   1_545  A
C1357      C1813   1.494       .  S
C1358      C1540   1.503       .  S
C1359      C1645   1.499       .  S
C1360      C1528   1.485       .  S
O1361      C1374   1.255       .  A
O1361     Co1369   1.959       .  S
O1362      C1375   1.256       .  A
O1362     Co1370   1.893       .  S
O1363      C1376   1.265       .  A
O1363     Co1987   2.028   1_545  S
O1364      C1993   1.276   1_564  A
O1364     Co1372   1.980       .  S
O1365      C1377   1.268       .  A
O1365     Co1370   1.997       .  S
O1366      C1376   1.251       .  A
O1366     Co1369   1.974   1_556  S
O1367      C1374   1.284       .  A
O1367     Co1372   2.089   1_545  S
O1368      C1375   1.297       .  A
O1368     Co1371   2.102       .  S
Co1369     O1373   2.053       .  S
Co1370     O1989   2.020   1_556  S
Co1371     O1979   2.028       .  S
Co1371     O1989   2.051   1_556  S
Co1372     O1971   2.017       .  S
Co1372     O1373   2.042   1_565  S
O1373     Co1986   2.020   1_544  S
O1373     Co1987   2.051   1_544  S
C1374      C1633   1.521       .  S
C1375      C1513   1.487       .  S
C1376      C1549   1.487       .  S
C1377      O1980   1.276   1_556  A
C1377      C1804   1.491       .  S
O1378      C1386   1.262       .  A
O1378     Co1398   2.021       .  S
O1379      C1387   1.226       .  A
O1379     Co1399   1.930       .  S
O1380      C1388   1.276       .  A
O1380     Co1400   2.080       .  S
O1381      C1389   1.263   1_565  A
O1381     Co1401   1.989   1_565  S
O1382      C1388   1.238       .  A
O1382     Co1399   1.923       .  S
O1383      C1389   1.254       .  A
O1383     Co1398   1.963       .  S
O1384      C1387   1.261       .  A
O1384     Co2017   2.061       .  S
O1385      C2002   1.253       .  A
O1385     Co1400   1.973       .  S
C1386      O2001   1.253   1_545  A
C1386      C1720   1.495       .  S
C1387      C1489   1.470       .  S
C1388      C1576   1.503       .  S
C1389      C1516   1.487   1_545  S
O1390      C1403   1.275       .  A
O1390     Co1398   1.941       .  S
O1391      C1404   1.268       .  A
O1391     Co1399   2.026       .  S
O1392      C1405   1.278       .  A
O1392     Co2016   1.925       .  S
O1393      C2022   1.261   1_545  A
O1393     Co1401   1.973       .  S
O1394      C1406   1.276       .  A
O1394     Co1399   2.067       .  S
O1395      C1405   1.292       .  A
O1395     Co1398   2.027       .  S
O1396      C1403   1.284       .  A
O1396     Co1401   2.023       .  S
O1397      C1404   1.249       .  A
O1397     Co1400   1.977       .  S
Co1398     O2018   2.085   1_545  S
Co1399     O1402   2.022       .  S
Co1400     O2008   1.925       .  S
Co1400     O1402   1.972       .  S
Co1401     O2000   2.061   1_545  S
Co1401     O2018   2.142   1_545  S
O1402     Co2014   2.085       .  S
O1402     Co2017   2.142       .  S
C1403      C1561   1.485       .  S
C1404      C1525   1.485       .  S
C1405      C1501   1.481       .  S
C1406      O2009   1.261       .  A
C1406      C1705   1.510       .  S
O1407      C1415   1.276       .  A
O1407     Co1427   2.002   1_554  S
O1408      C1416   1.266       .  A
O1408     Co1428   2.040       .  S
O1409      C1417   1.259       .  A
O1409     Co1429   1.990       .  S
O1410      C1418   1.282       .  A
O1410     Co1430   1.954       .  S
O1411      C1417   1.269       .  A
O1411     Co1428   2.026       .  S
O1412      C1418   1.286       .  A
O1412     Co1427   2.022       .  S
O1413      C1416   1.252       .  A
O1413     Co1430   1.998   1_554  S
O1414      C1415   1.281       .  A
O1414     Co1429   1.960       .  S
C1415      C1789   1.482       .  S
C1416      C1537   1.504       .  S
C1417      C1477   1.487       .  S
C1418      C1669   1.505       .  S
O1419      C1432   1.246       .  A
O1419     Co1427   1.936       .  S
O1420      C1433   1.253       .  A
O1420     Co1428   1.940       .  S
O1421      C1434   1.237       .  A
O1421     Co1429   1.977   1_556  S
O1422      C1435   1.276       .  A
O1422     Co1430   2.056       .  S
O1423      C1435   1.243       .  A
O1423     Co1428   1.941   1_556  S
O1424      C1434   1.252       .  A
O1424     Co1427   2.016       .  S
O1425      C1432   1.264       .  A
O1425     Co1430   2.025       .  S
O1426      C1433   1.277       .  A
O1426     Co1429   2.034       .  S
Co1427     O1431   2.203       .  S
Co1428     O1431   2.079   1_554  S
Co1429     O1431   1.966   1_554  S
Co1430     O1431   2.016       .  S
C1432      C1468   1.484       .  S
C1433      C1660   1.472       .  S
C1434      C1552   1.481       .  S
C1435      C1780   1.480       .  S
O1436      C1444   1.271       .  A
O1436     Co1456   2.042       .  S
O1437      C1445   1.240       .  A
O1437     Co1457   1.984       .  S
O1438      C1446   1.288       .  A
O1438     Co1458   2.023       .  S
O1439      C1447   1.270       .  A
O1439     Co1459   1.971       .  S
O1440      C1446   1.278       .  A
O1440     Co1457   1.959       .  S
O1441      C1447   1.277       .  A
O1441     Co1456   2.032       .  S
O1442      C1445   1.244       .  A
O1442     Co1459   1.993       .  S
O1443      C1444   1.247       .  A
O1443     Co1458   1.948       .  S
C1444      C1696   1.474       .  S
C1445      C1492   1.477       .  S
C1446      C1600   1.482       .  S
C1447      C1480   1.501       .  S
O1448      C1461   1.246       .  A
O1448     Co1456   1.936       .  S
O1449      C1462   1.248       .  A
O1449     Co1457   1.953       .  S
O1450      C1463   1.259       .  A
O1450     Co1458   2.053       .  S
O1451      C1464   1.252       .  A
O1451     Co1459   1.955       .  S
O1452      C1464   1.263       .  A
O1452     Co1457   2.006       .  S
O1453      C1463   1.232       .  A
O1453     Co1456   1.938       .  S
O1454      C1461   1.252       .  A
O1454     Co1459   1.993       .  S
O1455      C1462   1.266       .  A
O1455     Co1458   2.023       .  S
Co1456     O1460   2.052       .  S
Co1457     O1460   1.979       .  S
Co1458     O1460   2.197       .  S
Co1459     O1460   2.113       .  S
C1461      C1588   1.438       .  S
C1462      C1465   1.497       .  S
C1463      C1504   1.490       .  S
C1464      C1681   1.459       .  S
C1465      C1466   1.415       .  A
C1465      C1470   1.419       .  A
C1466      C1467   1.415       .  A
C1466      H1471   1.084       .  S
C1467      C1468   1.410       .  A
C1467      C1474   1.443       .  S
C1468      C1469   1.402       .  A
C1469      C1470   1.395       .  A
C1469      H1472   1.086       .  S
C1470      C1473   1.446       .  S
C1473      N1475   1.157       .  T
C1474      N1476   1.157       .  T
C1477      C1478   1.402       .  A
C1477      C1482   1.411       .  A
C1478      C1479   1.405       .  A
C1478      H1483   1.085       .  S
C1479      C1480   1.421       .  A
C1479      C1486   1.443       .  S
C1480      C1481   1.409       .  A
C1481      C1482   1.407       .  A
C1481      H1484   1.085       .  S
C1482      C1485   1.440       .  S
C1485      N1487   1.156       .  T
C1486      N1488   1.157       .  T
C1489      C1490   1.412       .  A
C1489      C1494   1.399       .  A
C1490      C1491   1.397       .  A
C1490      H1495   1.081       .  S
C1491      C1492   1.398       .  A
C1491      C1498   1.444       .  S
C1492      C1493   1.412       .  A
C1493      C1494   1.400       .  A
C1493      H1496   1.073       .  S
C1494      C1497   1.444       .  S
C1497      N1499   1.157       .  T
C1498      N1500   1.157       .  T
C1501      C1502   1.408       .  A
C1501      C1506   1.411       .  A
C1502      C1503   1.404       .  A
C1502      H1507   1.085       .  S
C1503      C1504   1.409       .  A
C1503      C1510   1.435       .  S
C1504      C1505   1.410       .  A
C1505      C1506   1.394       .  A
C1505      H1508   1.085       .  S
C1506      C1509   1.446       .  S
C1509      N1511   1.157       .  T
C1510      N1512   1.154       .  T
C1513      C2130   1.400       .  A
C1513      C1518   1.423       .  A
C1514      C2129   1.400   1_545  A
C1514      C1515   1.397       .  A
C1514      H1519   1.085       .  S
C1515      C1516   1.422   1_545  A
C1515      C1522   1.446       .  S
C1516      C2133   1.400       .  A
C1517      C2132   1.400       .  A
C1517      C1518   1.401       .  A
C1517      H1520   1.085       .  S
C1518      C1521   1.445       .  S
C1521      N1523   1.158       .  T
C1522      N1524   1.158       .  T
C1525      C2142   1.410       .  A
C1525      C1530   1.411       .  A
C1526      C2141   1.410   1_545  A
C1526      C1527   1.406       .  A
C1526      H1531   1.085       .  S
C1527      C1528   1.411       .  A
C1527      C1534   1.444       .  S
C1528      C2145   1.408   1_545  A
C1529      C2144   1.408       .  A
C1529      C1530   1.397       .  A
C1529      H1532   1.085       .  S
C1530      C1533   1.445       .  S
C1533      N1535   1.157       .  T
C1534      N1536   1.157       .  T
C1537      C1538   1.401       .  A
C1537      C1542   1.417       .  A
C1538      C1539   1.396       .  A
C1538      H1543   1.079       .  S
C1539      C1540   1.414       .  A
C1539      C1546   1.441   1_554  S
C1540      C1541   1.413       .  A
C1541      C1542   1.421       .  A
C1541      H1544   1.084       .  S
C1542      C1545   1.442       .  S
C1545      N1547   1.157       .  T
C1546      N1548   1.156       .  T
C1549      C1550   1.414       .  A
C1549      C1554   1.412       .  A
C1550      C1551   1.418       .  A
C1550      H1555   1.084       .  S
C1551      C1552   1.410       .  A
C1551      C1558   1.441       .  S
C1552      C1553   1.390       .  A
C1553      C1554   1.383       .  A
C1553      H1556   1.075       .  S
C1554      C1557   1.438   1_556  S
C1557      N1559   1.157       .  T
C1558      N1560   1.157       .  T
C1561      C1562   1.403       .  A
C1561      C1566   1.412       .  A
C1562      C1563   1.385       .  A
C1562      H1567   1.086       .  S
C1563      C1564   1.406       .  A
C1563      C1570   1.438       .  S
C1564      C1565   1.410       .  A
C1565      C1566   1.415       .  A
C1565      H1568   1.084       .  S
C1566      C1569   1.442       .  S
C1569      N1571   1.157       .  T
C1570      N1572   1.155       .  T
C1573      C1574   1.389       .  A
C1573      C1578   1.424       .  A
C1574      C1575   1.388       .  A
C1574      H1579   1.079       .  S
C1575      C1576   1.433       .  A
C1575      C1582   1.446       .  S
C1576      C1577   1.405       .  A
C1577      C1578   1.416       .  A
C1577      H1580   1.084       .  S
C1578      C1581   1.443       .  S
C1581      N1583   1.157       .  T
C1582      N1584   1.157       .  T
C1585      C1586   1.402       .  A
C1585      C1590   1.422       .  A
C1586      C1587   1.393       .  A
C1586      H1591   1.085       .  S
C1587      C1588   1.405       .  A
C1587      C1594   1.443       .  S
C1588      C1589   1.388       .  A
C1589      C1590   1.383       .  A
C1589      H1592   1.087       .  S
C1590      C1593   1.445       .  S
C1593      N1595   1.157       .  T
C1594      N1596   1.157       .  T
C1597      C1598   1.391       .  A
C1597      C1602   1.411       .  A
C1598      C1599   1.382       .  A
C1598      H1603   1.086       .  S
C1599      C1600   1.420       .  A
C1599      C1606   1.447       .  S
C1600      C1601   1.409       .  A
C1601      C1602   1.415       .  A
C1601      H1604   1.084       .  S
C1602      C1605   1.442       .  S
C1605      N1607   1.157       .  T
C1606      N1608   1.158       .  T
C1609      C1614   1.403       .  A
C1610      C1611   1.398       .  A
C1610      H1615   1.085       .  S
C1611      C1612   1.410       .  A
C1611      C1618   1.444       .  S
C1613      C1614   1.402       .  A
C1613      H1616   1.085       .  S
C1614      C1617   1.444       .  S
C1617      N1619   1.157       .  T
C1618      N1620   1.157       .  T
C1621      C1626   1.420       .  A
C1622      C1623   1.398       .  A
C1622      H1627   1.085       .  S
C1623      C1624   1.419       .  A
C1623      C1630   1.445   1_455  S
C1625      C1626   1.398       .  A
C1625      H1628   1.084       .  S
C1626      C1629   1.444       .  S
C1629      N1631   1.157       .  T
C1630      N1632   1.157       .  T
C1633      C1634   1.414       .  A
C1633      C1638   1.415       .  A
C1634      C1635   1.416       .  A
C1634      H1639   1.085       .  S
C1635      C1636   1.410       .  A
C1635      C1642   1.438       .  S
C1636      C1637   1.415       .  A
C1637      C1638   1.421       .  A
C1637      H1640   1.082       .  S
C1638      C1641   1.438       .  S
C1641      N1643   1.156       .  T
C1642      N1644   1.156       .  T
C1645      C1646   1.396       .  A
C1645      C1650   1.419       .  A
C1646      C1647   1.401   1_556  A
C1646      H1651   1.085   1_556  S
C1647      C1648   1.423   1_554  A
C1647      C1654   1.444       .  S
C1648      C1649   1.409       .  A
C1649      C1650   1.423       .  A
C1649      H1652   1.084       .  S
C1650      C1653   1.442       .  S
C1653      N1655   1.157       .  T
C1654      N1656   1.157       .  T
C1657      C1658   1.405   1_556  A
C1657      C1662   1.409       .  A
C1658      C1659   1.405       .  A
C1658      H1663   1.084       .  S
C1659      C1660   1.407       .  A
C1659      C1666   1.444       .  S
C1660      C1661   1.408   1_554  A
C1661      C1662   1.404       .  A
C1661      H1664   1.083       .  S
C1662      C1665   1.444       .  S
C1665      N1667   1.157       .  T
C1666      N1668   1.157       .  T
C1669      C1670   1.411       .  A
C1669      C1674   1.418       .  A
C1670      C1671   1.382   1_556  A
C1670      H1675   1.084       .  S
C1671      C1672   1.407       .  A
C1671      C1678   1.446       .  S
C1672      C1673   1.414       .  A
C1673      C1674   1.423   1_554  A
C1673      H1676   1.084       .  S
C1674      C1677   1.442       .  S
C1677      N1679   1.157       .  T
C1678      N1680   1.156       .  T
C1681      C1682   1.403       .  A
C1681      C1686   1.409       .  A
C1682      C1683   1.407       .  A
C1682      H1687   1.085       .  S
C1683      C1684   1.416       .  A
C1683      C1690   1.443       .  S
C1684      C1685   1.402       .  A
C1685      C1686   1.374       .  A
C1685      H1688   1.085       .  S
C1686      C1689   1.448       .  S
C1689      N1691   1.158       .  T
C1690      N1692   1.157       .  T
C1693      C1694   1.403       .  A
C1693      C1698   1.408       .  A
C1694      C1695   1.397       .  A
C1694      H1699   1.085       .  S
C1695      C1696   1.408       .  A
C1695      C1702   1.439       .  S
C1696      C1697   1.408       .  A
C1697      C1698   1.389       .  A
C1697      H1700   1.085       .  S
C1698      C1701   1.445       .  S
C1701      N1703   1.157       .  T
C1702      N1704   1.156       .  T
C1705      C2322   1.414       .  A
C1705      C1710   1.419       .  A
C1706      C2321   1.414   1_545  A
C1706      C1707   1.412       .  A
C1706      H1711   1.084       .  S
C1707      C2324   1.403       .  A
C1707      C1714   1.435       .  S
C1708      C2323   1.403       .  A
C1708      C1709   1.401       .  A
C1709      C1710   1.405       .  A
C1709      H1712   1.085       .  S
C1710      C1713   1.438       .  S
C1713      N1715   1.156       .  T
C1714      N1716   1.156       .  T
C1717      C2334   1.397   1_545  A
C1717      C1722   1.411       .  A
C1718      C2333   1.397       .  A
C1718      C1719   1.394       .  A
C1718      H1723   1.079       .  S
C1719      C2336   1.416       .  A
C1719      C1726   1.443       .  S
C1720      C2335   1.416   1_545  A
C1720      C1721   1.411       .  A
C1721      C1722   1.412       .  A
C1721      H1724   1.084       .  S
C1722      C1725   1.442       .  S
C1725      N1727   1.157       .  T
C1726      N1728   1.157       .  T
C1729      C1730   1.407       .  A
C1730      C1731   1.404       .  A
C1730      H1735   1.084       .  S
C1731      C1732   1.404       .  A
C1731      C1738   1.442       .  S
C1733      C1734   1.397   1_455  A
C1733      H1736   1.084   1_455  S
C1734      C1737   1.444       .  S
C1737      N1739   1.157       .  T
C1738      N1740   1.157       .  T
C1741      C1746   1.411       .  A
C1742      C1743   1.401       .  A
C1742      H1747   1.084       .  S
C1743      C1750   1.443       .  S
C1744      C1745   1.404   1_455  A
C1745      C1746   1.398       .  A
C1745      H1748   1.081       .  S
C1746      C1749   1.442       .  S
C1749      N1751   1.157       .  T
C1750      N1752   1.157       .  T
C1753      C2374   1.412   1_455  A
C1754      C1755   1.408       .  A
C1754      H1759   1.085       .  S
C1755      C1762   1.442       .  S
C1756      C1757   1.396   1_455  A
C1757      C1758   1.389       .  A
C1757      H1760   1.086       .  S
C1758      C2369   1.412   1_655  A
C1758      C1761   1.446       .  S
C1761      N1763   1.157       .  T
C1762      N1764   1.157       .  T
C1765      C1770   1.424       .  A
C1766      C1767   1.406       .  A
C1766      H1771   1.084   1_565  S
C1767      C1774   1.443   1_565  S
C1768      C2385   1.395       .  A
C1769      C2384   1.395       .  A
C1769      C1770   1.396       .  A
C1769      H1772   1.086       .  S
C1770      C1773   1.446       .  S
C1773      N1775   1.158       .  T
C1774      N1776   1.157       .  T
C1777      C1778   1.419   1_554  A
C1777      C1782   1.401       .  A
C1778      C1779   1.400       .  A
C1778      H1783   1.084       .  S
C1779      C1780   1.399       .  A
C1779      C1786   1.443       .  S
C1780      C1781   1.416   1_556  A
C1781      C1782   1.398       .  A
C1781      H1784   1.085       .  S
C1782      C1785   1.444       .  S
C1785      N1787   1.157       .  T
C1786      N1788   1.157       .  T
C1789      C1790   1.409   1_554  A
C1789      C1794   1.406       .  A
C1790      C1791   1.397       .  A
C1790      H1795   1.075       .  S
C1791      C1792   1.400       .  A
C1791      C1798   1.442       .  S
C1792      C1793   1.406   1_556  A
C1793      C1794   1.404       .  A
C1793      H1796   1.079       .  S
C1794      C1797   1.443       .  S
C1797      N1799   1.157       .  T
C1798      N1800   1.156       .  T
C1801      C1874   1.481       .  S
C1801      C2418   1.409       .  A
C1801      C1806   1.415       .  A
C1802      C2417   1.409       .  A
C1802      C1803   1.421       .  A
C1802      H1807   1.084       .  S
C1803      C2420   1.419       .  A
C1803      C1810   1.442       .  S
C1804      C2419   1.419       .  A
C1804      C1805   1.396   1_556  A
C1805      C1806   1.372   1_554  A
C1805      H1808   1.085       .  S
C1806      C1809   1.445   1_556  S
C1809      N1811   1.157       .  T
C1810      N1812   1.157       .  T
C1813      C1814   1.414       .  A
C1813      C1818   1.415       .  A
C1814      C1815   1.421       .  A
C1814      H1819   1.084       .  S
C1815      C1816   1.412       .  A
C1815      C1822   1.441       .  S
C1816      C1859   1.484       .  S
C1816      C2433   1.400       .  A
C1817      C2432   1.400       .  A
C1817      C2434   1.389       .  A
C1817      H1820   1.088   1_554  S
C1818      C2433   1.389       .  A
C1818      C2437   1.441   1_554  S
C1821      C2434   1.441   1_556  S
C1821      N1823   1.158       .  T
C1822      N1824   1.157       .  T
C1825      C1826   1.406       .  A
C1826      C1827   1.409       .  A
C1826      H1831   1.085       .  S
C1827      C1834   1.435       .  S
C1828      C1829   1.407       .  A
C1829      C1830   1.397       .  A
C1829      H1832   1.082       .  S
C1830      C1833   1.447       .  S
C1833      N1835   1.157       .  T
C1834      N1836   1.155       .  T
C1837      C1842   1.407       .  A
C1838      C1839   1.407   1_554  A
C1838      H1843   1.056       .  S
C1839      C1840   1.399   1_556  A
C1839      C1846   1.443       .  S
C1841      C1842   1.411       .  A
C1841      H1844   1.082       .  S
C1842      C1845   1.441       .  S
C1845      N1847   1.157       .  T
C1846      N1848   1.157       .  T
O1849      C1857   1.258       .  A
O1850     Co1870   1.939   1_556  S
O1851     Co1871   2.058       .  S
O1852     Co1872   1.982       .  S
O1853      C1859   1.258   1_565  A
O1853     Co1870   1.919       .  S
O1854      C1860   1.254       .  A
O1854     Co1869   1.968   1_455  S
O1855      C1858   1.265       .  A
O1855     Co1872   2.060       .  S
O1856      C1857   1.241   1_554  A
O1856     Co1871   1.956       .  S
C1857      C2408   1.470       .  S
C1858      C2441   1.494       .  S
C1860      C2372   1.464       .  S
O1861      C1874   1.274       .  A
O1861     Co1869   1.947       .  S
O1862      C1875   1.260       .  A
O1862     Co1870   1.987       .  S
O1863      C1876   1.283       .  A
O1863     Co1871   1.977       .  S
O1864      C1877   1.234       .  A
O1864     Co1872   1.927   1_554  S
O1865      C1877   1.269       .  A
O1866     Co1869   2.028   1_554  S
O1867     Co1872   2.009       .  S
O1868     Co1871   1.986       .  S
Co1871     O1873   1.986   1_554  S
C1875      C2381   1.493       .  S
C1876      C2453   1.513       .  S
C1877      C2393   1.483       .  S
O1878      C1886   1.297       .  A
O1878     Co1898   2.090       .  S
O1879      C1887   1.267       .  A
O1880      C1888   1.271       .  A
O1880     Co1900   2.015   1_545  S
O1881      C1889   1.276       .  A
O1881     Co1901   1.884       .  S
O1883      C1889   1.298       .  A
O1883     Co1898   2.061       .  S
O1884     Co1901   1.967       .  S
O1885     Co1900   1.884       .  S
C1886      C2384   1.469       .  S
C1887      C2357   1.487       .  S
C1888      C2324   1.488       .  S
C1889      C2309   1.464       .  S
O1890      C1903   1.251       .  A
O1890     Co1898   1.995       .  S
O1891      C1904   1.262       .  A
O1891     Co1899   1.986       .  S
O1892     Co1900   1.974       .  S
O1893     Co1901   2.034       .  S
O1894      C1906   1.253   1_665  A
O1894     Co1899   1.942       .  S
O1895      C1905   1.250       .  A
O1896      C1903   1.245       .  A
O1896     Co1901   1.987       .  S
O1897      C1904   1.261       .  A
O1897     Co1900   1.957       .  S
Co1898     O1902   2.240       .  S
Co1901     O1902   1.902       .  S
C1903      C2333   1.482       .  S
C1904      C2300   1.475       .  S
C1905      C2345   1.470       .  S
C1906      C2369   1.465       .  S
O1907      C1915   1.272       .  A
O1907     Co1927   2.018   1_554  S
O1908      C1916   1.274       .  A
O1908     Co1928   2.031       .  S
O1909      C1917   1.285       .  A
O1909     Co1929   2.039       .  S
O1910      C1918   1.312       .  A
O1910     Co1930   2.119       .  S
O1911      C1917   1.263       .  A
O1911     Co1928   1.934       .  S
O1912      C1918   1.273       .  A
O1912     Co1927   1.904       .  S
O1913      C1916   1.267   1_556  A
O1914      C1915   1.274       .  A
C1915      C2252   1.525       .  S
C1916      C2444   1.499   1_554  S
C1917      C2237   1.481       .  S
C1918      C2273   1.483       .  S
O1919      C1932   1.302       .  A
O1919     Co1927   2.124       .  S
O1920      C1933   1.263       .  A
O1920     Co1928   2.024       .  S
O1921     Co1929   1.934   1_556  S
O1922      C1935   1.273       .  A
O1923      C1935   1.238       .  A
O1923     Co1928   1.951   1_556  S
O1924      C1934   1.266       .  A
O1924     Co1927   2.059       .  S
O1925      C1932   1.256       .  A
O1925     Co1930   1.876       .  S
O1926      C1933   1.242       .  A
O1926     Co1929   1.927       .  S
Co1928     O1931   2.071       .  S
Co1929     O1931   2.023       .  S
C1932      C2225   1.475       .  S
C1933      C2288   1.486       .  S
C1934      C2456   1.500   1_556  S
C1935      C2264   1.508       .  S
O1936      C1944   1.248       .  A
O1936     Co1956   1.948       .  S
O1937      C1945   1.259       .  A
O1937     Co1957   2.044       .  S
O1938      C1946   1.243       .  A
O1938     Co1958   1.933       .  S
O1939      C1947   1.238       .  A
O1939     Co1959   1.929       .  S
O1940      C1946   1.261       .  A
O1940     Co1957   2.007       .  S
O1941      C1947   1.257       .  A
O1941     Co1956   2.015       .  S
O1942     Co1959   1.943       .  S
O1943      C1944   1.274       .  A
C1944      C2180   1.476       .  S
C1945      C2348   1.479       .  S
C1946      C2228   1.485       .  S
C1947      C2201   1.462       .  S
O1948      C1961   1.249       .  A
O1948     Co1956   1.933   1_455  S
O1949      C1962   1.265       .  A
O1949     Co1957   1.905       .  S
O1950     Co1958   1.963       .  S
O1951      C1964   1.261       .  A
O1952      C1964   1.269       .  A
O1952     Co1957   1.991       .  S
O1953      C1963   1.251   1_655  A
O1953     Co1956   1.990       .  S
O1954      C1961   1.275   1_655  A
O1954     Co1959   2.046       .  S
O1955      C1962   1.293       .  A
O1955     Co1958   2.070       .  S
Co1957     O1960   2.034       .  S
Co1958     O1960   2.156       .  S
C1961      C2240   1.479       .  S
C1962      C2213   1.468       .  S
C1963      C2360   1.471       .  S
C1964      C2189   1.495       .  S
O1965      C1973   1.275       .  A
O1965     Co1985   2.025       .  S
O1966      C1974   1.257   1_556  A
O1966     Co1986   1.994       .  S
O1967      C1975   1.268       .  A
O1967     Co1987   1.931       .  S
O1968      C1976   1.253       .  A
O1968     Co1988   1.935       .  S
O1969      C1975   1.300       .  A
O1969     Co1986   2.115       .  S
O1970      C1976   1.276       .  A
O1970     Co1985   2.045       .  S
O1971      C1974   1.261       .  A
O1972     Co1987   1.990   1_554  S
C1973      C2429   1.494       .  S
C1974      C2156   1.503       .  S
C1975      C2261   1.499       .  S
C1976      C2144   1.485       .  S
O1977      C1990   1.255       .  A
O1977     Co1985   1.959       .  S
O1978      C1991   1.256       .  A
O1978     Co1986   1.893       .  S
O1979      C1992   1.265       .  A
O1980     Co1988   1.980       .  S
O1981      C1993   1.268       .  A
O1981     Co1986   1.997   1_545  S
O1982      C1992   1.251       .  A
O1982     Co1985   1.974   1_556  S
O1983      C1990   1.284       .  A
O1983     Co1988   2.089       .  S
O1984      C1991   1.297   1_545  A
O1984     Co1987   2.102   1_545  S
Co1985     O1989   2.053       .  S
Co1988     O1989   2.042       .  S
C1990      C2249   1.521       .  S
C1991      C2129   1.487       .  S
C1992      C2165   1.487       .  S
C1993      C2420   1.491       .  S
O1994      C2002   1.262       .  A
O1994     Co2014   2.021       .  S
O1995      C2003   1.226       .  A
O1995     Co2015   1.930       .  S
O1996      C2004   1.276       .  A
O1996     Co2016   2.080   1_565  S
O1997      C2005   1.263       .  A
O1997     Co2017   1.989       .  S
O1998      C2004   1.238       .  A
O1998     Co2015   1.923       .  S
O1999      C2005   1.254       .  A
O1999     Co2014   1.963       .  S
O2000      C2003   1.261       .  A
O2001     Co2016   1.973   1_565  S
C2002      C2336   1.495       .  S
C2003      C2105   1.470       .  S
C2004      C2192   1.503       .  S
C2005      C2132   1.487       .  S
O2006      C2019   1.275       .  A
O2006     Co2014   1.941       .  S
O2007      C2020   1.268       .  A
O2007     Co2015   2.026       .  S
O2008      C2021   1.278       .  A
O2009     Co2017   1.973       .  S
O2010      C2022   1.276       .  A
O2010     Co2015   2.067       .  S
O2011      C2021   1.292       .  A
O2011     Co2014   2.027       .  S
O2012      C2019   1.284       .  A
O2012     Co2017   2.023       .  S
O2013      C2020   1.249   1_545  A
O2013     Co2016   1.977       .  S
Co2015     O2018   2.022       .  S
Co2016     O2018   1.972   1_545  S
C2019      C2177   1.485       .  S
C2020      C2141   1.485       .  S
C2021      C2117   1.481       .  S
C2022      C2321   1.510       .  S
O2023      C2031   1.276       .  A
O2023     Co2043   2.002   1_554  S
O2024      C2032   1.266       .  A
O2024     Co2044   2.040       .  S
O2025      C2033   1.259       .  A
O2025     Co2045   1.990       .  S
O2026      C2034   1.282       .  A
O2026     Co2046   1.954       .  S
O2027      C2033   1.269       .  A
O2027     Co2044   2.026       .  S
O2028      C2034   1.286       .  A
O2028     Co2043   2.022       .  S
O2029      C2032   1.252       .  A
O2029     Co2046   1.998   1_554  S
O2030      C2031   1.281       .  A
O2030     Co2045   1.960       .  S
C2031      C2405   1.482       .  S
C2032      C2153   1.504       .  S
C2033      C2093   1.487       .  S
C2034      C2285   1.505       .  S
O2035      C2048   1.246       .  A
O2035     Co2043   1.936       .  S
O2036      C2049   1.253       .  A
O2036     Co2044   1.940       .  S
O2037      C2050   1.237       .  A
O2037     Co2045   1.977   1_556  S
O2038      C2051   1.276       .  A
O2038     Co2046   2.056       .  S
O2039      C2051   1.243       .  A
O2039     Co2044   1.941   1_556  S
O2040      C2050   1.252       .  A
O2040     Co2043   2.016       .  S
O2041      C2048   1.264       .  A
O2041     Co2046   2.025       .  S
O2042      C2049   1.277       .  A
O2042     Co2045   2.034       .  S
Co2043     O2047   2.203       .  S
Co2044     O2047   2.079   1_554  S
Co2045     O2047   1.966   1_554  S
Co2046     O2047   2.016       .  S
C2048      C2084   1.484       .  S
C2049      C2276   1.472       .  S
C2050      C2168   1.481       .  S
C2051      C2396   1.480       .  S
O2052      C2060   1.271       .  A
O2052     Co2072   2.042       .  S
O2053      C2061   1.240       .  A
O2053     Co2073   1.984       .  S
O2054      C2062   1.288       .  A
O2054     Co2074   2.023       .  S
O2055      C2063   1.270       .  A
O2055     Co2075   1.971       .  S
O2056      C2062   1.278       .  A
O2056     Co2073   1.959       .  S
O2057      C2063   1.277       .  A
O2057     Co2072   2.032       .  S
O2058      C2061   1.244       .  A
O2058     Co2075   1.993       .  S
O2059      C2060   1.247       .  A
O2059     Co2074   1.948       .  S
C2060      C2312   1.474       .  S
C2061      C2108   1.477       .  S
C2062      C2216   1.482       .  S
C2063      C2096   1.501       .  S
O2064      C2077   1.246       .  A
O2064     Co2072   1.936       .  S
O2065      C2078   1.248       .  A
O2065     Co2073   1.953       .  S
O2066      C2079   1.259       .  A
O2066     Co2074   2.053       .  S
O2067      C2080   1.252       .  A
O2067     Co2075   1.955       .  S
O2068      C2080   1.263       .  A
O2068     Co2073   2.006       .  S
O2069      C2079   1.232       .  A
O2069     Co2072   1.938       .  S
O2070      C2077   1.252       .  A
O2070     Co2075   1.993       .  S
O2071      C2078   1.266       .  A
O2071     Co2074   2.023       .  S
Co2072     O2076   2.052       .  S
Co2073     O2076   1.979       .  S
Co2074     O2076   2.197       .  S
Co2075     O2076   2.113       .  S
C2077      C2204   1.438       .  S
C2078      C2081   1.497       .  S
C2079      C2120   1.490       .  S
C2080      C2297   1.459       .  S
C2081      C2082   1.415       .  A
C2081      C2086   1.419       .  A
C2082      C2083   1.415       .  A
C2082      H2087   1.084       .  S
C2083      C2084   1.410       .  A
C2083      C2090   1.443       .  S
C2084      C2085   1.402       .  A
C2085      C2086   1.395       .  A
C2085      H2088   1.086       .  S
C2086      C2089   1.446       .  S
C2089      N2091   1.157       .  T
C2090      N2092   1.157       .  T
C2093      C2094   1.402       .  A
C2093      C2098   1.411       .  A
C2094      C2095   1.405       .  A
C2094      H2099   1.085       .  S
C2095      C2096   1.421       .  A
C2095      C2102   1.443       .  S
C2096      C2097   1.409       .  A
C2097      C2098   1.407       .  A
C2097      H2100   1.085       .  S
C2098      C2101   1.440       .  S
C2101      N2103   1.156       .  T
C2102      N2104   1.157       .  T
C2105      C2106   1.412       .  A
C2105      C2110   1.399       .  A
C2106      C2107   1.397       .  A
C2106      H2111   1.081       .  S
C2107      C2108   1.398       .  A
C2107      C2114   1.444       .  S
C2108      C2109   1.412       .  A
C2109      C2110   1.400       .  A
C2109      H2112   1.073       .  S
C2110      C2113   1.444       .  S
C2113      N2115   1.157       .  T
C2114      N2116   1.157       .  T
C2117      C2118   1.408       .  A
C2117      C2122   1.411       .  A
C2118      C2119   1.404       .  A
C2118      H2123   1.085       .  S
C2119      C2120   1.409       .  A
C2119      C2126   1.435       .  S
C2120      C2121   1.410       .  A
C2121      C2122   1.394       .  A
C2121      H2124   1.085       .  S
C2122      C2125   1.446       .  S
C2125      N2127   1.157       .  T
C2126      N2128   1.154       .  T
C2129      C2134   1.423       .  A
C2130      C2131   1.397       .  A
C2130      H2135   1.085       .  S
C2131      C2132   1.422       .  A
C2131      C2138   1.446       .  S
C2133      C2134   1.401       .  A
C2133      H2136   1.085       .  S
C2134      C2137   1.445       .  S
C2137      N2139   1.158       .  T
C2138      N2140   1.158       .  T
C2141      C2146   1.411       .  A
C2142      C2143   1.406       .  A
C2142      H2147   1.085       .  S
C2143      C2144   1.411       .  A
C2143      C2150   1.444       .  S
C2145      C2146   1.397       .  A
C2145      H2148   1.085       .  S
C2146      C2149   1.445       .  S
C2149      N2151   1.157       .  T
C2150      N2152   1.157       .  T
C2153      C2154   1.401       .  A
C2153      C2158   1.417       .  A
C2154      C2155   1.396       .  A
C2154      H2159   1.079       .  S
C2155      C2156   1.414       .  A
C2155      C2162   1.441   1_554  S
C2156      C2157   1.413       .  A
C2157      C2158   1.421       .  A
C2157      H2160   1.084       .  S
C2158      C2161   1.442       .  S
C2161      N2163   1.157       .  T
C2162      N2164   1.156       .  T
C2165      C2166   1.414       .  A
C2165      C2170   1.412       .  A
C2166      C2167   1.418       .  A
C2166      H2171   1.084       .  S
C2167      C2168   1.410       .  A
C2167      C2174   1.441       .  S
C2168      C2169   1.390       .  A
C2169      C2170   1.383       .  A
C2169      H2172   1.075       .  S
C2170      C2173   1.438   1_556  S
C2173      N2175   1.157       .  T
C2174      N2176   1.157       .  T
C2177      C2178   1.403       .  A
C2177      C2182   1.412       .  A
C2178      C2179   1.385       .  A
C2178      H2183   1.086       .  S
C2179      C2180   1.406       .  A
C2179      C2186   1.438       .  S
C2180      C2181   1.410       .  A
C2181      C2182   1.415       .  A
C2181      H2184   1.084       .  S
C2182      C2185   1.442       .  S
C2185      N2187   1.157       .  T
C2186      N2188   1.155       .  T
C2189      C2190   1.389       .  A
C2189      C2194   1.424       .  A
C2190      C2191   1.388       .  A
C2190      H2195   1.079       .  S
C2191      C2192   1.433       .  A
C2191      C2198   1.446       .  S
C2192      C2193   1.405       .  A
C2193      C2194   1.416       .  A
C2193      H2196   1.084       .  S
C2194      C2197   1.443       .  S
C2197      N2199   1.157       .  T
C2198      N2200   1.157       .  T
C2201      C2202   1.402       .  A
C2201      C2206   1.422       .  A
C2202      C2203   1.393       .  A
C2202      H2207   1.085       .  S
C2203      C2204   1.405       .  A
C2203      C2210   1.443       .  S
C2204      C2205   1.388       .  A
C2205      C2206   1.383       .  A
C2205      H2208   1.087       .  S
C2206      C2209   1.445       .  S
C2209      N2211   1.157       .  T
C2210      N2212   1.157       .  T
C2213      C2214   1.391       .  A
C2213      C2218   1.411       .  A
C2214      C2215   1.382       .  A
C2214      H2219   1.086       .  S
C2215      C2216   1.420       .  A
C2215      C2222   1.447       .  S
C2216      C2217   1.409       .  A
C2217      C2218   1.415       .  A
C2217      H2220   1.084       .  S
C2218      C2221   1.442       .  S
C2221      N2223   1.157       .  T
C2222      N2224   1.158       .  T
C2225      C2230   1.403       .  A
C2226      C2227   1.398       .  A
C2226      H2231   1.085       .  S
C2227      C2228   1.410       .  A
C2227      C2234   1.444       .  S
C2229      C2230   1.402       .  A
C2229      H2232   1.085       .  S
C2230      C2233   1.444       .  S
C2233      N2235   1.157       .  T
C2234      N2236   1.157       .  T
C2237      C2242   1.420       .  A
C2238      C2239   1.398       .  A
C2238      H2243   1.085       .  S
C2239      C2240   1.419       .  A
C2239      C2246   1.445   1_455  S
C2241      C2242   1.398       .  A
C2241      H2244   1.084       .  S
C2242      C2245   1.444       .  S
C2245      N2247   1.157       .  T
C2246      N2248   1.157       .  T
C2249      C2250   1.414       .  A
C2249      C2254   1.415       .  A
C2250      C2251   1.416       .  A
C2250      H2255   1.085       .  S
C2251      C2252   1.410       .  A
C2251      C2258   1.438       .  S
C2252      C2253   1.415       .  A
C2253      C2254   1.421       .  A
C2253      H2256   1.082       .  S
C2254      C2257   1.438       .  S
C2257      N2259   1.156       .  T
C2258      N2260   1.156       .  T
C2261      C2262   1.396       .  A
C2261      C2266   1.419       .  A
C2262      C2263   1.401   1_556  A
C2262      H2267   1.085   1_556  S
C2263      C2264   1.423   1_554  A
C2263      C2270   1.444       .  S
C2264      C2265   1.409       .  A
C2265      C2266   1.423       .  A
C2265      H2268   1.084       .  S
C2266      C2269   1.442       .  S
C2269      N2271   1.157       .  T
C2270      N2272   1.157       .  T
C2273      C2274   1.405   1_556  A
C2273      C2278   1.409       .  A
C2274      C2275   1.405       .  A
C2274      H2279   1.084       .  S
C2275      C2276   1.407       .  A
C2275      C2282   1.444       .  S
C2276      C2277   1.408   1_554  A
C2277      C2278   1.404       .  A
C2277      H2280   1.083       .  S
C2278      C2281   1.444       .  S
C2281      N2283   1.157       .  T
C2282      N2284   1.157       .  T
C2285      C2286   1.411       .  A
C2285      C2290   1.418       .  A
C2286      C2287   1.382   1_556  A
C2286      H2291   1.084       .  S
C2287      C2288   1.407       .  A
C2287      C2294   1.446       .  S
C2288      C2289   1.414       .  A
C2289      C2290   1.423   1_554  A
C2289      H2292   1.084       .  S
C2290      C2293   1.442       .  S
C2293      N2295   1.157       .  T
C2294      N2296   1.156       .  T
C2297      C2298   1.403       .  A
C2297      C2302   1.409       .  A
C2298      C2299   1.407       .  A
C2298      H2303   1.085       .  S
C2299      C2300   1.416       .  A
C2299      C2306   1.443       .  S
C2300      C2301   1.402       .  A
C2301      C2302   1.374       .  A
C2301      H2304   1.085       .  S
C2302      C2305   1.448       .  S
C2305      N2307   1.158       .  T
C2306      N2308   1.157       .  T
C2309      C2310   1.403       .  A
C2309      C2314   1.408       .  A
C2310      C2311   1.397       .  A
C2310      H2315   1.085       .  S
C2311      C2312   1.408       .  A
C2311      C2318   1.439       .  S
C2312      C2313   1.408       .  A
C2313      C2314   1.389       .  A
C2313      H2316   1.085       .  S
C2314      C2317   1.445       .  S
C2317      N2319   1.157       .  T
C2318      N2320   1.156       .  T
C2321      C2326   1.419       .  A
C2322      C2323   1.412       .  A
C2322      H2327   1.084       .  S
C2323      C2330   1.435       .  S
C2324      C2325   1.401   1_545  A
C2325      C2326   1.405       .  A
C2325      H2328   1.085       .  S
C2326      C2329   1.438       .  S
C2329      N2331   1.156       .  T
C2330      N2332   1.156       .  T
C2333      C2338   1.411       .  A
C2334      C2335   1.394       .  A
C2334      H2339   1.079       .  S
C2335      C2342   1.443       .  S
C2336      C2337   1.411       .  A
C2337      C2338   1.412       .  A
C2337      H2340   1.084       .  S
C2338      C2341   1.442       .  S
C2341      N2343   1.157       .  T
C2342      N2344   1.157       .  T
C2345      C2346   1.407       .  A
C2346      C2347   1.404       .  A
C2346      H2351   1.084       .  S
C2347      C2348   1.404       .  A
C2347      C2354   1.442       .  S
C2349      C2350   1.397   1_455  A
C2349      H2352   1.084   1_455  S
C2350      C2353   1.444       .  S
C2353      N2355   1.157       .  T
C2354      N2356   1.157       .  T
C2357      C2362   1.411       .  A
C2358      C2359   1.401       .  A
C2358      H2363   1.084       .  S
C2359      C2366   1.443       .  S
C2360      C2361   1.404   1_455  A
C2361      C2362   1.398       .  A
C2361      H2364   1.081       .  S
C2362      C2365   1.442       .  S
C2365      N2367   1.157       .  T
C2366      N2368   1.157       .  T
C2370      C2371   1.408       .  A
C2370      H2375   1.085       .  S
C2371      C2378   1.442       .  S
C2372      C2373   1.396   1_455  A
C2373      C2374   1.389       .  A
C2373      H2376   1.086       .  S
C2374      C2377   1.446       .  S
C2377      N2379   1.157       .  T
C2378      N2380   1.157       .  T
C2381      C2386   1.424       .  A
C2382      C2383   1.406       .  A
C2382      H2387   1.084       .  S
C2383      C2390   1.443       .  S
C2385      C2386   1.396       .  A
C2385      H2388   1.086       .  S
C2386      C2389   1.446       .  S
C2389      N2391   1.158       .  T
C2390      N2392   1.157       .  T
C2393      C2394   1.419   1_554  A
C2393      C2398   1.401       .  A
C2394      C2395   1.400       .  A
C2394      H2399   1.084       .  S
C2395      C2396   1.399       .  A
C2395      C2402   1.443       .  S
C2396      C2397   1.416   1_556  A
C2397      C2398   1.398       .  A
C2397      H2400   1.085       .  S
C2398      C2401   1.444       .  S
C2401      N2403   1.157       .  T
C2402      N2404   1.157       .  T
C2405      C2406   1.409   1_554  A
C2405      C2410   1.406       .  A
C2406      C2407   1.397       .  A
C2406      H2411   1.075       .  S
C2407      C2408   1.400       .  A
C2407      C2414   1.442       .  S
C2408      C2409   1.406   1_556  A
C2409      C2410   1.404       .  A
C2409      H2412   1.079       .  S
C2410      C2413   1.443       .  S
C2413      N2415   1.157       .  T
C2414      N2416   1.156       .  T
C2417      C2422   1.415       .  A
C2418      C2419   1.421       .  A
C2418      H2423   1.084       .  S
C2419      C2426   1.442       .  S
C2420      C2421   1.396   1_556  A
C2421      C2422   1.372   1_554  A
C2421      H2424   1.085   1_545  S
C2422      C2425   1.445   1_546  S
C2425      N2427   1.157       .  T
C2426      N2428   1.157       .  T
C2429      C2430   1.414       .  A
C2429      C2434   1.415       .  A
C2430      C2431   1.421       .  A
C2430      H2435   1.084       .  S
C2431      C2432   1.412       .  A
C2431      C2438   1.441       .  S
C2433      H2436   1.088   1_554  S
C2437      N2439   1.158       .  T
C2438      N2440   1.157       .  T
C2441      C2442   1.406       .  A
C2442      C2443   1.409       .  A
C2442      H2447   1.085       .  S
C2443      C2450   1.435       .  S
C2444      C2445   1.407       .  A
C2445      C2446   1.397       .  A
C2445      H2448   1.082       .  S
C2446      C2449   1.447       .  S
C2449      N2451   1.157       .  T
C2450      N2452   1.155       .  T
C2453      C2458   1.407       .  A
C2454      C2455   1.407   1_554  A
C2454      H2459   1.056       .  S
C2455      C2456   1.399   1_556  A
C2455      C2462   1.443       .  S
C2457      C2458   1.411       .  A
C2457      H2460   1.082       .  S
C2458      C2461   1.441       .  S
C2461      N2463   1.157       .  T
C2462      N2464   1.157       .  T
