geometry optimzed in LAMMPS
_audit_creation_date              2020-11-30 
_audit_creation_method            'lammps2cif' 
_symmetry_space_group_name_H-M    'P1' 
_symmetry_Int_Tables_number       1 
_symmetry_cell_setting            triclinic 
loop_ 
_symmetry_equiv_pos_as_xyz 
  x,y,z 
_cell_length_a                    31.30822097 
_cell_length_b                    31.910066845363644 
_cell_length_c                    25.722389591561615 
_cell_angle_alpha                 89.54915349357283 
_cell_angle_beta                  90.0864405956745 
_cell_angle_gamma                 87.44395584556412 
loop_ 
_atom_site_label 
_atom_site_type_symbol 
_atom_site_fract_x 
_atom_site_fract_y 
_atom_site_fract_z 
_atom_site_charge 
O1          O  0.14724846  0.06034749  0.30322274    -0.72000
O2          O  0.14388014  0.48255253  0.19025724    -0.72200
O3          O  0.14650048  0.47468355  0.30020216    -0.72100
O4          O  0.14721010  0.06651227  0.19990202    -0.72100
O5          O  0.21574224  0.05580612  0.19537506    -0.72100
O6          O  0.21518101  0.47660770  0.30348725    -0.72100
O7          O  0.21231365  0.47341141  0.19699304    -0.72000
O8          O  0.21584108  0.06077207  0.29523927    -0.72200
V9          V  0.14699951  0.02037864  0.24855797     1.35200
V10         V  0.21319619  0.51611770  0.24792192     1.35200
C11         C  0.18235503  0.07611757  0.31491732     0.77200
C12         C  0.17847751  0.46686926  0.17171332     0.77300
C13         C  0.18174686  0.46213511  0.32202532     0.77200
C14         C  0.18312460  0.07700714  0.18221732     0.77100
C15         C  0.22638002  0.18041895  0.99746535    -0.02700
C16         C  0.21251969  0.33203173  0.50208852    -0.02700
O17         O  0.28623989  0.02696774  0.28528864    -0.72000
O18         O  0.29415723  0.43045894  0.20214663    -0.72200
O19         O  0.29301638  0.44590026  0.30077597    -0.72100
O20         O  0.28408719  0.01183333  0.17979042    -0.72100
O21         O  0.35006242  0.02727498  0.18743878    -0.72100
O22         O  0.36170618  0.43824051  0.29135367    -0.72100
O23         O  0.36021462  0.44245083  0.18562475    -0.72000
O24         O  0.35437751  0.02229514  0.29693818    -0.72200
V25         V  0.29059321  0.97932480  0.24183447     1.35200
V26         V  0.35613465  0.48285866  0.24025854     1.35200
C27         C  0.31819506  0.03738328  0.31125921     0.77200
C28         C  0.32753944  0.42158810  0.17681349     0.77300
C29         C  0.32756485  0.42788191  0.31396830     0.77200
C30         C  0.31449767  0.03201439  0.16264425     0.77100
C31         C  0.28936209  0.16777213  0.49119823    -0.02700
C32         C  0.27559766  0.32097935  0.49743407    -0.02700
O33         O  0.03649731  0.21243600  0.32215073    -0.72000
O34         O  0.47734037  0.20883592  0.19304899    -0.72200
O35         O  0.45574966  0.21091097  0.29351253    -0.72100
O36         O  0.05981418  0.21303287  0.22284806    -0.72100
O37         O  0.05668294  0.14661313  0.20722417    -0.72100
O38         O  0.46946825  0.14568650  0.31357951    -0.72100
O39         O  0.46960945  0.14255956  0.20641381    -0.72000
O40         O  0.05402212  0.14620109  0.31392735    -0.72200
V41         V  0.00744206  0.21022149  0.25765532     1.35200
V42         V  0.01234912  0.14559903  0.25987125     1.35200
C43         C  0.05662244  0.17992657  0.33899680     0.77200
C44         C  0.46028424  0.17536614  0.17989363     0.77300
C45         C  0.44933374  0.18037092  0.32264067     0.77200
C46         C  0.07403218  0.18149568  0.19873001     0.77100
C47         C  0.17979099  0.22482279  0.50902954    -0.02700
C48         C  0.33182782  0.21123561  0.50190186    -0.02700
O49         O  0.03479738  0.35782447  0.29875080    -0.72000
O50         O  0.44878950  0.34988953  0.19382035    -0.72200
O51         O  0.44812858  0.35374632  0.29879183    -0.72100
O52         O  0.03458618  0.35488400  0.19329747    -0.72100
O53         O  0.03264092  0.28711909  0.18965762    -0.72100
O54         O  0.46407006  0.28760420  0.31042128    -0.72100
O55         O  0.44865529  0.28312181  0.20940162    -0.72000
O56         O  0.04772286  0.29086645  0.29020303    -0.72200
V57         V  0.99169775  0.35336589  0.24623958     1.35200
V58         V  0.99812754  0.28845824  0.24986283     1.35200
C59         C  0.05661959  0.32478410  0.31106340     0.77200
C60         C  0.43376109  0.31440039  0.18461121     0.77300
C61         C  0.44202987  0.31980504  0.32302830     0.77200
C62         C  0.04738917  0.32062087  0.17272886     0.77100
C63         C  0.17170519  0.28730129  0.49767253    -0.02700
C64         C  0.32162968  0.27405953  0.50176711    -0.02700
C65         C  0.37303029  0.29595835  0.35568869    -0.26600
C66         C  0.41035480  0.31631304  0.36514705    -0.14600
C67         C  0.42076389  0.32392957  0.41645218     0.36000
C68         C  0.39559089  0.30791005  0.45636947    -0.26000
C69         C  0.35423121  0.28901715  0.45139854    -0.15200
C70         C  0.34477189  0.28482468  0.39597080     0.37100
N71         N  0.30746418  0.26608005  0.37852162    -0.89500
H72         H  0.36520984  0.28877556  0.31573945     0.18200
H73         H  0.41441920  0.30863084  0.49034471     0.18200
N74         N  0.45753381  0.34701925  0.43051920    -0.88500
H75         H  0.29553894  0.27913058  0.34375106     0.35600
H76         H  0.28675509  0.26768810  0.40953767     0.40700
H77         H  0.47385258  0.35791453  0.39813009     0.40300
H78         H  0.47852703  0.32693474  0.45150948     0.35200
C79         C  0.37353878  0.32211425  0.05905706    -0.26600
C80         C  0.34904707  0.28573408  0.05497728    -0.14600
C81         C  0.34435486  0.26840709  0.10619173     0.36000
C82         C  0.37163276  0.27797931  0.14822825    -0.26000
C83         C  0.40234533  0.30796275  0.14325153    -0.15200
C84         C  0.40284068  0.33095497  0.09774646     0.37100
N85         N  0.43198279  0.36422780  0.09091284    -0.89500
H86         H  0.37122993  0.34535444  0.03143923     0.18200
H87         H  0.36666434  0.26428505  0.18613730     0.18200
N88         N  0.30660940  0.24806606  0.11932605    -0.88500
H89         H  0.42751781  0.37909214  0.05481688     0.35600
H90         H  0.46284696  0.35039195  0.09022861     0.40700
H91         H  0.29374578  0.23316227  0.08756717     0.40300
H92         H  0.30521979  0.23455584  0.15646829     0.35200
C93         C  0.15451838  0.30133761  0.39277776    -0.26600
C94         C  0.13935230  0.29478831  0.44508418    -0.14600
C95         C  0.09249852  0.29070428  0.44157952     0.36000
C96         C  0.06796406  0.30754695  0.40027807    -0.26000
C97         C  0.08577259  0.32209576  0.35551593    -0.15200
C98         C  0.12966392  0.31684291  0.35038801     0.37100
N99         N  0.14905627  0.32391765  0.30100556    -0.89500
H100        H  0.18265110  0.28598630  0.37921497     0.18200
H101        H  0.03368226  0.30425173  0.40098007     0.18200
N102        N  0.06729295  0.26773071  0.47673595    -0.88500
H103        H  0.16743218  0.29708176  0.29081118     0.35600
H104        H  0.16925654  0.34891809  0.30396587     0.40700
H105        H  0.05353319  0.24496274  0.95338535     0.40300
H106        H  0.04192479  0.28617443  0.49172698     0.35200
C107        C  0.06809144  0.33526326  0.08231993    -0.26600
C108        C  0.07886265  0.31883303  0.13011571    -0.14600
C109        C  0.11986702  0.30138839  0.13693220     0.36000
C110        C  0.14799795  0.29810038  0.09384186    -0.26000
C111        C  0.13671733  0.30555753  0.04188144    -0.15200
C112        C  0.09607691  0.33211004  0.03955683     0.37100
N113        N  0.08161439  0.35921452  0.99756730    -0.89500
H114        H  0.03757424  0.35236364  0.07815613     0.18200
H115        H  0.17989863  0.28815602  0.10007739     0.18200
N116        N  0.13347250  0.28883831  0.18820005    -0.88500
H117        H  0.05065054  0.35212707  0.98659454     0.35600
H118        H  0.07720954  0.38992329  0.51183837     0.40700
H119        H  0.13007893  0.31559645  0.21095911     0.40300
H120        H  0.16596485  0.28010785  0.18875633     0.35200
C121        C  0.35641491  0.18433312  0.10293789    -0.26600
C122        C  0.36713834  0.19067317  0.04943261    -0.14600
C123        C  0.41078428  0.16885494  0.04465567     0.36000
C124        C  0.44093418  0.16789499  0.08607864    -0.26000
C125        C  0.42866961  0.17584172  0.13647188    -0.15200
C126        C  0.38510182  0.17923495  0.14534725     0.37100
N127        N  0.36969432  0.17504266  0.19735811    -0.89500
H128        H  0.32463552  0.17834914  0.11299904     0.18200
H129        H  0.47353498  0.15659476  0.07916345     0.18200
N130        N  0.42631946  0.14553408  0.00013308    -0.88500
H131        H  0.33634340  0.17762736  0.19876591     0.35600
H132        H  0.38123714  0.20022346  0.21764515     0.40700
H133        H  0.43576206  0.11508843  0.51102568     0.40300
H134        H  0.45593014  0.15626806  0.98879862     0.35200
C135        C  0.43985432  0.20742130  0.41193770    -0.26600
C136        C  0.42266590  0.18819644  0.36862388    -0.14600
C137        C  0.37868883  0.18890814  0.36523119     0.36000
C138        C  0.35457812  0.19702111  0.40952542    -0.26000
C139        C  0.36883553  0.20652387  0.45728260    -0.15200
C140        C  0.41404534  0.21869600  0.45539302     0.37100
N141        N  0.43663635  0.23923761  0.49641682    -0.89500
H142        H  0.47357739  0.21389583  0.41228460     0.18200
H143        H  0.32224756  0.20298243  0.40786067     0.18200
N144        N  0.35753487  0.18643064  0.31650459    -0.88500
H145        H  0.46476318  0.22255286  0.50720158     0.35600
H146        H  0.41833858  0.24549862  0.02915114     0.40700
H147        H  0.37026407  0.16004611  0.29728183     0.40300
H148        H  0.36417533  0.21357801  0.29582360     0.35200
C149        C  0.14634521  0.21554874  0.41849444    -0.26600
C150        C  0.14139883  0.20565200  0.47001690    -0.14600
C151        C  0.10532300  0.17691669  0.47566991     0.36000
C152        C  0.07785738  0.16845165  0.43277770    -0.26000
C153        C  0.08589606  0.18373863  0.38300647    -0.15200
C154        C  0.12189387  0.20612761  0.37572798     0.37100
N155        N  0.13546207  0.21907529  0.32498696    -0.89500
H156        H  0.17285553  0.23181973  0.41325965     0.18200
H157        H  0.05070383  0.14901510  0.43850846     0.18200
N158        N  0.09827022  0.15130972  0.52073501    -0.88500
H159        H  0.11184524  0.23906611  0.30851693     0.35600
H160        H  0.13880362  0.19261033  0.30141381     0.40700
H161        H  0.09982791  0.12003888  0.01038669     0.40300
H162        H  0.06653508  0.15654854  0.53190861     0.35200
C163        C  0.11086103  0.22116099  0.07066754    -0.26600
C164        C  0.15600943  0.21595790  0.06686903    -0.14600
C165        C  0.17255925  0.21043414  0.11968523     0.36000
C166        C  0.14682186  0.19546328  0.16144093    -0.26000
C167        C  0.10313714  0.18955507  0.15488822    -0.15200
C168        C  0.08480302  0.20785897  0.11082326     0.37100
N169        N  0.03933149  0.21604248  0.10753478    -0.89500
H170        H  0.09393961  0.23530699  0.04130550     0.18200
H171        H  0.16060846  0.19118946  0.19989110     0.18200
N172        N  0.21108369  0.22873948  0.13491528    -0.88500
H173        H  0.02779728  0.20244309  0.07396183     0.35600
H174        H  0.03343545  0.24830810  0.10294205     0.40700
H175        H  0.22895915  0.22989861  0.10165508     0.40300
H176        H  0.22742857  0.21137981  0.16374371     0.35200
C177        C  0.30222017  0.35564517  0.13991687    -0.26600
C178        C  0.32424222  0.39254858  0.13310225    -0.14600
C179        C  0.32657730  0.40935752  0.08314694     0.36000
C180        C  0.30261540  0.39191136  0.04340139    -0.26000
C181        C  0.28772006  0.35026415  0.04553641    -0.15200
C182        C  0.28453890  0.33490756  0.09688671     0.37100
N183        N  0.25378838  0.30450168  0.10626415    -0.89500
H184        H  0.29587613  0.34463796  0.17899391     0.18200
H185        H  0.29835812  0.41182115  0.01032850     0.18200
N186        N  0.35418824  0.44327414  0.07215187    -0.88500
H187        H  0.25178265  0.29376546  0.14473263     0.35600
H188        H  0.24830148  0.28556814  0.07454414     0.40700
H189        H  0.34446785  0.46956126  0.09356613     0.40300
H190        H  0.35258542  0.45187786  0.03286319     0.35200
C191        C  0.29130556  0.36872415  0.35010805    -0.26600
C192        C  0.32445508  0.39569322  0.35432701    -0.14600
C193        C  0.34392452  0.39878526  0.40198046     0.36000
C194        C  0.32980289  0.37466056  0.44368218    -0.26000
C195        C  0.29222439  0.34914138  0.44513702    -0.15200
C196        C  0.27497110  0.34749194  0.39330284     0.37100
N197        N  0.24101479  0.32277517  0.38097849    -0.89500
H198        H  0.27543766  0.36605230  0.31276425     0.18200
H199        H  0.35042149  0.37933830  0.47466469     0.18200
N200        N  0.37772209  0.42698346  0.41003777    -0.88500
H201        H  0.21696030  0.34321952  0.36664253     0.35600
H202        H  0.23268992  0.30748767  0.41486249     0.40700
H203        H  0.36613285  0.45749595  0.40153179     0.40300
H204        H  0.40249806  0.41915201  0.38419612     0.35200
C205        C  0.32311984  0.06128510  0.40632744    -0.26600
C206        C  0.31260086  0.06889110  0.35407428    -0.14600
C207        C  0.30007374  0.10962196  0.34153692     0.36000
C208        C  0.29512967  0.13977381  0.38143764    -0.26000
C209        C  0.30207121  0.13442382  0.43736960    -0.15200
C210        C  0.33059093  0.09665759  0.43867707     0.37100
N211        N  0.37526018  0.10405523  0.44056007    -0.89500
H212        H  0.33883600  0.03128846  0.41582059     0.18200
H213        H  0.28919064  0.16852903  0.36296426     0.18200
N214        N  0.29303527  0.12090474  0.28779223    -0.88500
H215        H  0.38496387  0.11316109  0.40351934     0.35600
H216        H  0.39272039  0.07582001  0.44768598     0.40700
H217        H  0.32143076  0.11469695  0.26738231     0.40300
H218        H  0.28564534  0.15295089  0.28314445     0.35200
C219        C  0.27685462  0.08630360  0.03063108    -0.26600
C220        C  0.30046797  0.12459162  0.03143517    -0.14600
C221        C  0.33753036  0.11236516  0.06241813     0.36000
C222        C  0.33075481  0.09669098  0.11285441    -0.26000
C223        C  0.30740012  0.06117067  0.11602186    -0.15200
C224        C  0.28049580  0.05450971  0.07174047     0.37100
N225        N  0.25932188  0.01603182  0.06577648    -0.89500
H226        H  0.25631335  0.08114793  0.99783031     0.18200
H227        H  0.35534135  0.10017383  0.14193623     0.18200
N228        N  0.37143071  0.08769887  0.03892596    -0.88500
H229        H  0.24030142  0.01128365  0.09841139     0.35600
H230        H  0.28210688  0.99141909  0.06394416     0.40700
H231        H  0.36100037  0.05780381  0.03035113     0.40300
H232        H  0.39669742  0.08278948  0.06540042     0.35200
C233        C  0.16160177  0.38031776  0.43046496    -0.26600
C234        C  0.20153816  0.37195221  0.45729766    -0.14600
C235        C  0.22495833  0.41043441  0.44956500     0.36000
C236        C  0.22358150  0.43092265  0.39966699    -0.26000
C237        C  0.18614946  0.43245831  0.36898290    -0.15200
C238        C  0.15293714  0.40977386  0.38921385     0.37100
N239        N  0.11012113  0.41791219  0.37023286    -0.89500
H240        H  0.13454208  0.36656998  0.44317604     0.18200
H241        H  0.24697705  0.45413353  0.39172133     0.18200
N242        N  0.22607396  0.44139030  0.48988307    -0.88500
H243        H  0.08807084  0.40168338  0.39214921     0.35600
H244        H  0.10871825  0.40697395  0.33211440     0.40700
H245        H  0.23271033  0.42868084  0.52595737     0.40300
H246        H  0.25010189  0.46232088  0.48207474     0.35200
C247        C  0.21791515  0.41409430  0.11909610    -0.26600
C248        C  0.18165063  0.43981875  0.12343993    -0.14600
C249        C  0.15097002  0.43307496  0.08379685     0.36000
C250        C  0.15997517  0.39975174  0.04661525    -0.26000
C251        C  0.19464434  0.36689563  0.05132011    -0.15200
C252        C  0.21017571  0.37372108  0.10344117     0.37100
N253        N  0.19394253  0.35083577  0.14709537    -0.89500
H254        H  0.24102270  0.41624894  0.14867159     0.18200
H255        H  0.14108349  0.40368147  0.01316051     0.18200
N256        N  0.11373097  0.46033797  0.07657346    -0.88500
H257        H  0.16511950  0.36543946  0.15926703     0.35600
H258        H  0.21485852  0.35196148  0.17882733     0.40700
H259        H  0.11344529  0.48521388  0.10263310     0.40300
H260        H  0.08706582  0.44282968  0.08462908     0.35200
C261        C  0.20548695  0.14595031  0.34728052    -0.26600
C262        C  0.18601020  0.10766277  0.35520493    -0.14600
C263        C  0.17360901  0.09768755  0.40462868     0.36000
C264        C  0.18398592  0.12382182  0.44433643    -0.26000
C265        C  0.21161275  0.15696330  0.44345179    -0.15200
C266        C  0.21689060  0.17116833  0.39055084     0.37100
N267        N  0.23275741  0.21175891  0.38061665    -0.89500
H268        H  0.21212738  0.15614809  0.30803309     0.18200
H269        H  0.15956403  0.12493364  0.47030074     0.18200
N270        N  0.14764620  0.06274059  0.41583851    -0.88500
H271        H  0.24345556  0.21605295  0.34248209     0.35600
H272        H  0.25498223  0.21588454  0.40932858     0.40700
H273        H  0.16390214  0.03507260  0.40415423     0.40300
H274        H  0.11890887  0.06654462  0.39525405     0.35200
C275        C  0.23705516  0.15265022  0.09391476    -0.26600
C276        C  0.21412482  0.14890899  0.04715391    -0.14600
C277        C  0.18151282  0.11735587  0.05407825     0.36000
C278        C  0.16155023  0.11281502  0.10199865    -0.26000
C279        C  0.18878752  0.11045050  0.14397141    -0.17600
C280        C  0.22749106  0.13141332  0.14024514     0.37100
N281        N  0.25498811  0.13582482  0.18402654    -0.89500
H282        H  0.26297101  0.17257582  0.09411247     0.18200
H283        H  0.13343485  0.09413261  0.10359295     0.18200
N284        N  0.18405200  0.07726726  0.02796642    -0.88500
H285        H  0.26848641  0.10658120  0.19444790     0.35600
H286        H  0.23620310  0.14724596  0.21477914     0.40700
H287        H  0.19166761  0.05396831  0.55502054     0.40300
H288        H  0.15314394  0.06901045  0.01804139     0.35200
O289        O  0.14708086  0.06113258  0.80282753    -0.72000
O290        O  0.14412346  0.48262042  0.69043660    -0.72200
O291        O  0.14681881  0.47541912  0.80042288    -0.72100
O292        O  0.14678781  0.06674278  0.69951683    -0.72100
O293        O  0.21539408  0.05662539  0.69529985    -0.72100
O294        O  0.21551755  0.47743011  0.80342811    -0.72100
O295        O  0.21266156  0.47407446  0.69713256    -0.72000
O296        O  0.21571726  0.06162578  0.79509223    -0.72200
V297        V  0.14700346  0.02083753  0.74847257     1.35200
V298        V  0.21323740  0.51693324  0.74784674     1.35200
C299        C  0.18214947  0.07697085  0.81460462     0.77200
C300        C  0.17883377  0.46684370  0.67226443     0.77300
C301        C  0.18212929  0.46292198  0.82208523     0.77200
C302        C  0.18263949  0.07755607  0.68202730     0.77100
C303        C  0.22634895  0.18032456  0.49726172    -0.02700
C304        C  0.21290235  0.33239696  0.00147624    -0.02700
O305        O  0.28650068  0.02754205  0.78630699    -0.72000
O306        O  0.29435303  0.43184474  0.70209842    -0.72200
O307        O  0.29377796  0.44659428  0.80109191    -0.72100
O308        O  0.28405609  0.01317478  0.68086175    -0.72100
O309        O  0.35015978  0.02835280  0.68777181    -0.72100
O310        O  0.36251473  0.43945972  0.79166270    -0.72100
O311        O  0.36052168  0.44357061  0.68583714    -0.72000
O312        O  0.35478195  0.02339716  0.79717610    -0.72200
V313        V  0.29093956  0.98030163  0.74243784     1.35200
V314        V  0.35651607  0.48399491  0.74053179     1.35200
C315        C  0.31855826  0.03807198  0.81192229     0.77200
C316        C  0.32772966  0.42290313  0.67683073     0.77300
C317        C  0.32848191  0.42886006  0.81428995     0.77200
C318        C  0.31443314  0.03317998  0.66337491     0.77100
C319        C  0.28932823  0.16785853  0.99149969    -0.02700
C320        C  0.27585557  0.32113142  0.99672085    -0.02700
O321        O  0.03649899  0.21312508  0.82206174    -0.72000
O322        O  0.47671295  0.20922891  0.69321552    -0.72200
O323        O  0.45554058  0.21146870  0.79384437    -0.72100
O324        O  0.05928396  0.21371434  0.72253226    -0.72100
O325        O  0.05688099  0.14709362  0.70784632    -0.72100
O326        O  0.46887296  0.14602054  0.81318471    -0.72100
O327        O  0.46992184  0.14274619  0.70603938    -0.72000
O328        O  0.05348020  0.14672512  0.81451641    -0.72200
V329        V  0.00710400  0.21074784  0.75769122     1.35200
V330        V  0.01219194  0.14605738  0.76000392     1.35200
C331        C  0.05635033  0.18054943  0.83928465     0.77200
C332        C  0.46024839  0.17553889  0.67967029     0.77300
C333        C  0.44877786  0.18069337  0.82243213     0.77200
C334        C  0.07387834  0.18207587  0.69893407     0.77100
C335        C  0.17998611  0.22506978  0.00916858    -0.02700
C336        C  0.33175503  0.21123631  0.00208786    -0.02700
O337        O  0.03468021  0.35857257  0.79901709    -0.72000
O338        O  0.44898544  0.34998322  0.69369242    -0.72200
O339        O  0.44776942  0.35402088  0.79860691    -0.72100
O340        O  0.03463136  0.35509858  0.69356076    -0.72100
O341        O  0.03173482  0.28742193  0.68948184    -0.72100
O342        O  0.46497876  0.28826568  0.81152268    -0.72100
O343        O  0.44817124  0.28349096  0.71071180    -0.72000
O344        O  0.04854619  0.29184920  0.78976633    -0.72200
V345        V  0.99162681  0.35376683  0.74635853     1.35200
V346        V  0.99822799  0.28897362  0.75036280     1.35200
C347        C  0.05730629  0.32585185  0.81069954     0.77200
C348        C  0.43368315  0.31453277  0.68502855     0.77300
C349        C  0.44220660  0.32018755  0.82336386     0.77200
C350        C  0.04675745  0.32077222  0.67259761     0.77100
C351        C  0.17221840  0.28761050  0.99739580    -0.02700
C352        C  0.32164038  0.27404090  0.00159508    -0.02700
C353        C  0.37290684  0.29657309  0.85557808    -0.26600
C354        C  0.41046148  0.31651475  0.86531726    -0.14600
C355        C  0.42115171  0.32327179  0.91669249     0.36000
C356        C  0.39574048  0.30738738  0.95635289    -0.26000
C357        C  0.35425071  0.28887521  0.95124885    -0.15200
C358        C  0.34467922  0.28509808  0.89578127     0.37100
N359        N  0.30720043  0.26665552  0.87821878    -0.89500
H360        H  0.36495736  0.28989198  0.81552442     0.18200
H361        H  0.41455517  0.30789536  0.99030319     0.18200
N362        N  0.45851534  0.34530882  0.93113070    -0.88500
H363        H  0.29553591  0.27962306  0.84326666     0.35600
H364        H  0.28631821  0.26856406  0.90902957     0.40700
H365        H  0.47491657  0.35647972  0.89895661     0.40300
H366        H  0.47911706  0.32444655  0.95155997     0.35200
C367        C  0.37325650  0.32241516  0.55925876    -0.26600
C368        C  0.34907341  0.28581363  0.55501036    -0.14600
C369        C  0.34465909  0.26815708  0.60600194     0.36000
C370        C  0.37217362  0.27740871  0.64793896    -0.26000
C371        C  0.40239104  0.30794080  0.64339500    -0.15200
C372        C  0.40213867  0.33166087  0.59832562     0.37100
N373        N  0.42988040  0.36620162  0.59242665    -0.89500
H374        H  0.37070626  0.34568582  0.53165720     0.18200
H375        H  0.36762406  0.26311018  0.68559116     0.18200
N376        N  0.30704489  0.24755741  0.61907483    -0.88500
H377        H  0.42468049  0.38171276  0.55687085     0.35600
H378        H  0.46122826  0.35359427  0.59117785     0.40700
H379        H  0.29365249  0.23324999  0.58715818     0.40300
H380        H  0.30553108  0.23408474  0.65621000     0.35200
C381        C  0.15566899  0.30131977  0.89209442    -0.26600
C382        C  0.14034257  0.29529216  0.94448519    -0.14600
C383        C  0.09362454  0.29156736  0.94080375     0.36000
C384        C  0.06922012  0.30936613  0.89996181    -0.26000
C385        C  0.08704041  0.32349988  0.85493280    -0.15200
C386        C  0.13101296  0.31710945  0.84947238     0.37100
N387        N  0.15022357  0.32275607  0.79949519    -0.89500
H388        H  0.18377484  0.28546017  0.87904529     0.18200
H389        H  0.03494351  0.30638442  0.90080439     0.18200
N390        N  0.06860115  0.26754880  0.97501746    -0.88500
H391        H  0.18246960  0.31287160  0.79942334     0.35600
H392        H  0.14877897  0.35483422  0.79084492     0.40700
H393        H  0.05251781  0.24431547  0.45617935     0.40300
H394        H  0.04342315  0.28555675  0.99113343     0.35200
C395        C  0.06746639  0.33512100  0.58216642    -0.26600
C396        C  0.07807189  0.31860840  0.62995028    -0.14600
C397        C  0.11886724  0.30073422  0.63686401     0.36000
C398        C  0.14716100  0.29754673  0.59390733    -0.26000
C399        C  0.13613418  0.30523938  0.54203261    -0.15200
C400        C  0.09569038  0.33205935  0.53963984     0.37100
N401        N  0.08163451  0.35940162  0.49774763    -0.89500
H402        H  0.03700212  0.35232432  0.57789487     0.18200
H403        H  0.17918939  0.28784064  0.60005659     0.18200
N404        N  0.13210234  0.28768813  0.68812112    -0.88500
H405        H  0.05070614  0.35258743  0.48632709     0.35600
H406        H  0.07688909  0.38976506  0.01142589     0.40700
H407        H  0.12839206  0.31411840  0.71135217     0.40300
H408        H  0.16461263  0.27906784  0.68899273     0.35200
C409        C  0.35650055  0.18401006  0.60248812    -0.26600
C410        C  0.36722361  0.19058941  0.54909882    -0.14600
C411        C  0.41081165  0.16876191  0.54420596     0.36000
C412        C  0.44103164  0.16781160  0.58562109    -0.26000
C413        C  0.42873982  0.17573157  0.63608194    -0.15200
C414        C  0.38514706  0.17869465  0.64490008     0.37100
N415        N  0.36965714  0.17362448  0.69675077    -0.89500
H416        H  0.32468226  0.17802482  0.61234278     0.18200
H417        H  0.47362332  0.15652200  0.57866258     0.18200
N418        N  0.42608156  0.14540476  0.49959738    -0.88500
H419        H  0.33629412  0.17593464  0.69801483     0.35600
H420        H  0.38086723  0.19863875  0.71763393     0.40700
H421        H  0.43611180  0.11524160  0.01157091     0.40300
H422        H  0.45569520  0.15609909  0.48819535     0.35200
C423        C  0.43944825  0.20703300  0.91186905    -0.26600
C424        C  0.42203305  0.18831670  0.86837049    -0.14600
C425        C  0.37800715  0.18956688  0.86497374     0.36000
C426        C  0.35403703  0.19751239  0.90945659    -0.26000
C427        C  0.36856449  0.20637024  0.95735097    -0.15200
C428        C  0.41379897  0.21833104  0.95538846     0.37100
N429        N  0.43655390  0.23881025  0.99634155    -0.89500
H430        H  0.47323209  0.21324596  0.91222704     0.18200
H431        H  0.32168170  0.20363164  0.90800020     0.18200
N432        N  0.35673946  0.18755222  0.81625203    -0.88500
H433        H  0.46481833  0.22230253  0.00696072     0.35600
H434        H  0.41827710  0.24576139  0.52914624     0.40700
H435        H  0.36896835  0.16093531  0.79709415     0.40300
H436        H  0.36396138  0.21450058  0.79547684     0.35200
C437        C  0.14618237  0.21585206  0.91893846    -0.26600
C438        C  0.14144496  0.20589381  0.97039432    -0.14600
C439        C  0.10548220  0.17706820  0.97608891     0.36000
C440        C  0.07799092  0.16851956  0.93313550    -0.26000
C441        C  0.08567513  0.18426750  0.88339294    -0.15200
C442        C  0.12160372  0.20676643  0.87619484     0.37100
N443        N  0.13510633  0.22004221  0.82554828    -0.89500
H444        H  0.17272469  0.23191466  0.91374460     0.18200
H445        H  0.05098001  0.14890409  0.93885296     0.18200
N446        N  0.09857160  0.15152181  0.02123918    -0.88500
H447        H  0.11147035  0.24009416  0.80926967     0.35600
H448        H  0.13843880  0.19372924  0.80172506     0.40700
H449        H  0.09935403  0.11986064  0.50975378     0.40300
H450        H  0.06681003  0.15661937  0.03236332     0.35200
C451        C  0.11081507  0.22053236  0.57046332    -0.26600
C452        C  0.15592924  0.21561240  0.56674600    -0.14600
C453        C  0.17248603  0.21060148  0.61962338     0.36000
C454        C  0.14673984  0.19593193  0.66159108    -0.26000
C455        C  0.10303900  0.18995263  0.65511855    -0.15200
C456        C  0.08471891  0.20775780  0.61079113     0.37100
N457        N  0.03926081  0.21608207  0.60740090    -0.89500
H458        H  0.09396683  0.23406987  0.54084007     0.18200
H459        H  0.16052259  0.19196411  0.70007557     0.18200
N460        N  0.21106360  0.22902675  0.63452407    -0.88500
H461        H  0.02768650  0.20219929  0.57404171     0.35600
H462        H  0.03347780  0.24832002  0.60231931     0.40700
H463        H  0.22884633  0.23016429  0.60112981     0.40300
H464        H  0.22751953  0.21188018  0.66341449     0.35200
C465        C  0.30305707  0.35656618  0.64040029    -0.26600
C466        C  0.32428803  0.39386146  0.63311185    -0.14600
C467        C  0.32563951  0.41070282  0.58309240     0.36000
C468        C  0.30203685  0.39238941  0.54355942    -0.26000
C469        C  0.28759426  0.35051996  0.54616790    -0.15200
C470        C  0.28508106  0.33550547  0.59784002     0.37100
N471        N  0.25514904  0.30453947  0.60821503    -0.89500
H472        H  0.29737065  0.34552322  0.67962797     0.18200
H473        H  0.29753547  0.41193131  0.51023468     0.18200
N474        N  0.35188998  0.44564264  0.57183326    -0.88500
H475        H  0.25326070  0.29389443  0.64673039     0.35600
H476        H  0.24752349  0.28670234  0.57623656     0.40700
H477        H  0.34201537  0.47139827  0.59409079     0.40300
H478        H  0.34917760  0.45470771  0.53276696     0.35200
C479        C  0.29232540  0.36956883  0.84969560    -0.26600
C480        C  0.32551870  0.39642083  0.85434211    -0.14600
C481        C  0.34492025  0.39911951  0.90210361     0.36000
C482        C  0.33055724  0.37478205  0.94349652    -0.26000
C483        C  0.29276660  0.34951191  0.94460088    -0.15200
C484        C  0.27557673  0.34837243  0.89259559     0.37100
N485        N  0.24126029  0.32422803  0.87979505    -0.89500
H486        H  0.27658747  0.36715039  0.81223256     0.18200
H487        H  0.35113739  0.37915211  0.97456965     0.18200
N488        N  0.37894117  0.42699544  0.91055363    -0.88500
H489        H  0.21727116  0.34482391  0.86532235     0.35600
H490        H  0.23289212  0.30903296  0.91367509     0.40700
H491        H  0.36760851  0.45763324  0.90229079     0.40300
H492        H  0.40370639  0.41913183  0.88471037     0.35200
C493        C  0.32399194  0.06181836  0.90673946    -0.26600
C494        C  0.31290857  0.06937235  0.85469866    -0.14600
C495        C  0.29969839  0.10989573  0.84218776     0.36000
C496        C  0.29477523  0.13998355  0.88202410    -0.26000
C497        C  0.30215388  0.13468268  0.93777227    -0.15200
C498        C  0.33113979  0.09726293  0.93897574     0.37100
N499        N  0.37568215  0.10507146  0.94085613    -0.89500
H500        H  0.34024943  0.03202545  0.91597809     0.18200
H501        H  0.28879223  0.16869915  0.86358054     0.18200
N502        N  0.29213929  0.12107138  0.78849354    -0.88500
H503        H  0.38534216  0.11398954  0.90372460     0.35600
H504        H  0.39336109  0.07701650  0.94829402     0.40700
H505        H  0.32042547  0.11510567  0.76777966     0.40300
H506        H  0.28447925  0.15306671  0.78386595     0.35200
C507        C  0.27655561  0.08662241  0.53109164    -0.26600
C508        C  0.30053827  0.12463775  0.53129274    -0.14600
C509        C  0.33785872  0.11209090  0.56175898     0.36000
C510        C  0.33136080  0.09692803  0.61248563    -0.26000
C511        C  0.30723857  0.06202817  0.61657682    -0.15200
C512        C  0.27980825  0.05535700  0.57278998     0.37100
N513        N  0.25747636  0.01743417  0.56802257    -0.89500
H514        H  0.25574953  0.08145659  0.49855725     0.18200
H515        H  0.35647340  0.09997695  0.64099089     0.18200
N516        N  0.37121597  0.08675253  0.53816588    -0.88500
H517        H  0.23869509  0.01362910  0.60107466     0.35600
H518        H  0.27941207  0.99213519  0.56615565     0.40700
H519        H  0.36025799  0.05694609  0.53018523     0.40300
H520        H  0.39670993  0.08174019  0.56429456     0.35200
C521        C  0.16199162  0.38076677  0.93004055    -0.26600
C522        C  0.20196951  0.37235791  0.95678021    -0.14600
C523        C  0.22554004  0.41076454  0.94903762     0.36000
C524        C  0.22417204  0.43125129  0.89919043    -0.26000
C525        C  0.18656869  0.43314115  0.86887679    -0.15200
C526        C  0.15325551  0.41065853  0.88932044     0.37100
N527        N  0.11023060  0.41977508  0.87159488    -0.89500
H528        H  0.13484054  0.36701980  0.94280610     0.18200
H529        H  0.24771148  0.45430639  0.89114657     0.18200
N530        N  0.22670829  0.44174164  0.98926079    -0.88500
H531        H  0.08827653  0.40348209  0.89358371     0.35600
H532        H  0.10787574  0.40961704  0.83325261     0.40700
H533        H  0.23352597  0.42887191  0.02511765     0.40300
H534        H  0.25089118  0.46248972  0.98142440     0.35200
C535        C  0.21767902  0.41202870  0.62207857    -0.26600
C536        C  0.18211523  0.43878783  0.62504437    -0.14600
C537        C  0.15204798  0.43310420  0.58467016     0.36000
C538        C  0.16038184  0.39977298  0.54743357    -0.26000
C539        C  0.19439958  0.36627950  0.55231176    -0.15200
C540        C  0.20943558  0.37214315  0.60502383     0.37100
N541        N  0.19293611  0.34882082  0.64811567    -0.89500
H542        H  0.23929322  0.41292852  0.65367745     0.18200
H543        H  0.14159577  0.40406987  0.51383386     0.18200
N544        N  0.11589849  0.46158642  0.57767336    -0.88500
H545        H  0.16445120  0.36384040  0.66075671     0.35600
H546        H  0.21388111  0.34898703  0.67991031     0.40700
H547        H  0.12702271  0.49190840  0.57429416     0.40300
H548        H  0.09690629  0.46025726  0.61095625     0.35200
C549        C  0.20500967  0.14681820  0.84733209    -0.26600
C550        C  0.18570407  0.10840923  0.85504681    -0.14600
C551        C  0.17373685  0.09799940  0.90450496     0.36000
C552        C  0.18402870  0.12402507  0.94434803    -0.26000
C553        C  0.21157642  0.15724554  0.94357630    -0.15200
C554        C  0.21669842  0.17173134  0.89075118     0.37100
N555        N  0.23269887  0.21232229  0.88104489    -0.89500
H556        H  0.21141481  0.15728451  0.80813545     0.18200
H557        H  0.15964578  0.12485883  0.97042782     0.18200
N558        N  0.14840513  0.06258718  0.91567561    -0.88500
H559        H  0.24373577  0.21664738  0.84306742     0.35600
H560        H  0.25453510  0.21664803  0.91019039     0.40700
H561        H  0.16501831  0.03521232  0.90365299     0.40300
H562        H  0.11951619  0.06604768  0.89535172     0.35200
C563        C  0.23689153  0.15283082  0.59382765    -0.26600
C564        C  0.21403913  0.14895426  0.54703198    -0.14600
C565        C  0.18112166  0.11770082  0.55409645     0.36000
C566        C  0.16100851  0.11356465  0.60197231    -0.26000
C567        C  0.18821200  0.11111455  0.64395842    -0.17600
C568        C  0.22699333  0.13196390  0.64031139     0.37100
N569        N  0.25419416  0.13668550  0.68431588    -0.89500
H570        H  0.26286361  0.17268892  0.59400093     0.18200
H571        H  0.13276346  0.09506599  0.60361512     0.18200
N572        N  0.18335740  0.07746316  0.52828792    -0.88500
H573        H  0.26790030  0.10756409  0.69488429     0.35600
H574        H  0.23519910  0.14804796  0.71492330     0.40700
H575        H  0.19333593  0.05381758  0.05436937     0.40300
H576        H  0.15243564  0.06962408  0.51787828     0.35200
O577        O  0.14724731  0.56034800  0.30321985    -0.72000
O578        O  0.14387975  0.98255438  0.19025688    -0.72200
O579        O  0.14650358  0.97468299  0.30020229    -0.72100
O580        O  0.14721205  0.56651022  0.19989866    -0.72100
O581        O  0.21574493  0.55580708  0.19537946    -0.72100
O582        O  0.21518357  0.97661248  0.30348943    -0.72100
O583        O  0.21231282  0.97341068  0.19699493    -0.72000
O584        O  0.21584089  0.56076681  0.29524421    -0.72200
V585        V  0.14699924  0.52037796  0.24855656     1.35200
V586        V  0.21319617  0.01611975  0.24792068     1.35200
C587        C  0.18235446  0.57611535  0.31491771     0.77200
C588        C  0.17847692  0.96686943  0.17171408     0.77300
C589        C  0.18175040  0.96213728  0.32202677     0.77200
C590        C  0.18312724  0.57700631  0.18221714     0.77100
C591        C  0.22638178  0.68041861  0.99746145    -0.02700
C592        C  0.21252266  0.83203128  0.50208910    -0.02700
O593        O  0.28624259  0.52697127  0.28528468    -0.72000
O594        O  0.29415718  0.93045829  0.20214540    -0.72200
O595        O  0.29301575  0.94589595  0.30077515    -0.72100
O596        O  0.28408932  0.51183368  0.17978771    -0.72100
O597        O  0.35006468  0.52727506  0.18743691    -0.72100
O598        O  0.36170593  0.93823969  0.29135455    -0.72100
O599        O  0.36021462  0.94245085  0.18562533    -0.72000
O600        O  0.35437995  0.52229557  0.29693650    -0.72200
V601        V  0.29059448  0.47932693  0.24183326     1.35200
V602        V  0.35613327  0.98285824  0.24025991     1.35200
C603        C  0.31819777  0.53738504  0.31125650     0.77200
C604        C  0.32753966  0.92158817  0.17681262     0.77300
C605        C  0.32756474  0.92787893  0.31396786     0.77200
C606        C  0.31450015  0.53201436  0.16264174     0.77100
C607        C  0.28936601  0.66777009  0.49119819    -0.02700
C608        C  0.27560029  0.82097734  0.49743450    -0.02700
O609        O  0.03650147  0.71243811  0.32214596    -0.72000
O610        O  0.47733808  0.70883440  0.19305516    -0.72200
O611        O  0.45574933  0.71090935  0.29351849    -0.72100
O612        O  0.05981695  0.71303447  0.22284310    -0.72100
O613        O  0.05668762  0.64661422  0.20722154    -0.72100
O614        O  0.46946727  0.64568452  0.31358523    -0.72100
O615        O  0.46960481  0.64255851  0.20642023    -0.72000
O616        O  0.05402658  0.64620328  0.31392388    -0.72200
V617        V  0.00744511  0.71022245  0.25765114     1.35200
V618        V  0.01235339  0.64560005  0.25986800     1.35200
C619        C  0.05662789  0.67992935  0.33899176     0.77200
C620        C  0.46028006  0.67536546  0.17990046     0.77300
C621        C  0.44933462  0.68036954  0.32264725     0.77200
C622        C  0.07403566  0.68149708  0.19872597     0.77100
C623        C  0.17979487  0.72482223  0.50902781    -0.02700
C624        C  0.33183069  0.71123359  0.50190388    -0.02700
O625        O  0.03479346  0.85782347  0.29874954    -0.72000
O626        O  0.44878932  0.84988969  0.19382464    -0.72200
O627        O  0.44813224  0.85374760  0.29879701    -0.72100
O628        O  0.03458487  0.85488257  0.19329509    -0.72100
O629        O  0.03263725  0.78711799  0.18965322    -0.72100
O630        O  0.46407028  0.78760436  0.31042302    -0.72100
O631        O  0.44865826  0.78312138  0.20940276    -0.72000
O632        O  0.04772068  0.79086602  0.29019926    -0.72200
V633        V  0.99169515  0.85336483  0.24623659     1.35200
V634        V  0.99812483  0.78845740  0.24985981     1.35200
C635        C  0.05661603  0.82478322  0.31106186     0.77200
C636        C  0.43376290  0.81440002  0.18461349     0.77300
C637        C  0.44203237  0.81980603  0.32303218     0.77200
C638        C  0.04738682  0.82061947  0.17272516     0.77100
C639        C  0.17170747  0.78730120  0.49767116    -0.02700
C640        C  0.32163238  0.77405745  0.50176889    -0.02700
C641        C  0.37303444  0.79595665  0.35569224    -0.26600
C642        C  0.41035742  0.81631400  0.36515070    -0.14600
C643        C  0.42076570  0.82393180  0.41645585     0.36000
C644        C  0.39559403  0.80790972  0.45637275    -0.26000
C645        C  0.35423474  0.78901567  0.45140141    -0.15200
C646        C  0.34477577  0.78482297  0.39597385     0.37100
N647        N  0.30746796  0.76607860  0.37852430    -0.89500
H648        H  0.36521483  0.78877265  0.31574315     0.18200
H649        H  0.41442241  0.80863090  0.49034796     0.18200
N650        N  0.45753281  0.84702571  0.43052294    -0.88500
H651        H  0.29554262  0.77912900  0.34375416     0.35600
H652        H  0.28675837  0.76768637  0.40954059     0.40700
H653        H  0.47385038  0.85792251  0.39813418     0.40300
H654        H  0.47852832  0.82694314  0.45151346     0.35200
C655        C  0.37353934  0.82211519  0.05905983    -0.26600
C656        C  0.34904768  0.78573489  0.05497949    -0.14600
C657        C  0.34435595  0.76840769  0.10619409     0.36000
C658        C  0.37163414  0.77797961  0.14823044    -0.26000
C659        C  0.40234763  0.80796206  0.14325324    -0.15200
C660        C  0.40284395  0.83095330  0.09774732     0.37100
N661        N  0.43199064  0.86422178  0.09091042    -0.89500
H662        H  0.37123006  0.84535640  0.03144276     0.18200
H663        H  0.36666545  0.76428566  0.18613966     0.18200
N664        N  0.30661016  0.74806764  0.11932905    -0.88500
H665        H  0.42752691  0.87908465  0.05481297     0.35600
H666        H  0.46285288  0.85038201  0.09022617     0.40700
H667        H  0.29374683  0.73316394  0.08757039     0.40300
H668        H  0.30522164  0.73455569  0.15647064     0.35200
C669        C  0.15451587  0.80134094  0.39277624    -0.26600
C670        C  0.13935189  0.79478917  0.44508348    -0.14600
C671        C  0.09249807  0.79070213  0.44157927     0.36000
C672        C  0.06796227  0.80754014  0.40027583    -0.26000
C673        C  0.08576878  0.82209436  0.35551520    -0.15200
C674        C  0.12966035  0.81684751  0.35038786     0.37100
N675        N  0.14905224  0.82392846  0.30100642    -0.89500
H676        H  0.18264765  0.78599031  0.37921018     0.18200
H677        H  0.03368133  0.80423985  0.40097642     0.18200
N678        N  0.06729286  0.76773241  0.47674016    -0.88500
H679        H  0.16743027  0.79709479  0.29080860     0.35600
H680        H  0.16925104  0.84892973  0.30397112     0.40700
H681        H  0.05353411  0.74496027  0.95337584     0.40300
H682        H  0.04192383  0.78617749  0.49172711     0.35200
C683        C  0.06808980  0.83525968  0.08231471    -0.26600
C684        C  0.07886083  0.81883120  0.13011154    -0.14600
C685        C  0.11986529  0.80138726  0.13692859     0.36000
C686        C  0.14799716  0.79809943  0.09383858    -0.26000
C687        C  0.13671729  0.80555604  0.04187757    -0.15200
C688        C  0.09607612  0.83210701  0.03955212     0.37100
N689        N  0.08161381  0.85921140  0.99756248    -0.89500
H690        H  0.03757210  0.85235890  0.07814982     0.18200
H691        H  0.17989804  0.78815605  0.10007474     0.18200
N692        N  0.13346958  0.78883600  0.18819653    -0.88500
H693        H  0.05064988  0.85212363  0.98658959     0.35600
H694        H  0.07721533  0.88992412  0.51183591     0.40700
H695        H  0.13007549  0.81559385  0.21095697     0.40300
H696        H  0.16596131  0.78010510  0.18875387     0.35200
C697        C  0.35641302  0.68433309  0.10293871    -0.26600
C698        C  0.36713875  0.69067446  0.04943418    -0.14600
C699        C  0.41078597  0.66885815  0.04465930     0.36000
C700        C  0.44093365  0.66789824  0.08608442    -0.26000
C701        C  0.42866642  0.67584202  0.13647735    -0.15200
C702        C  0.38509815  0.67923398  0.14534994     0.37100
N703        N  0.36968803  0.67504022  0.19735952    -0.89500
H704        H  0.32463342  0.67834923  0.11299801     0.18200
H705        H  0.47353504  0.65659910  0.07917102     0.18200
N706        N  0.42632420  0.64553743  0.00013776    -0.88500
H707        H  0.33633752  0.67762200  0.19876535     0.35600
H708        H  0.38122802  0.70022268  0.21764715     0.40700
H709        H  0.43576584  0.61508646  0.51102485     0.40300
H710        H  0.45593592  0.65627138  0.98880578     0.35200
C711        C  0.43985662  0.70742194  0.41194246    -0.26600
C712        C  0.42266840  0.68819527  0.36863003    -0.14600
C713        C  0.37869198  0.68890523  0.36523639     0.36000
C714        C  0.35458088  0.69701981  0.40952933    -0.26000
C715        C  0.36883824  0.70652273  0.45728614    -0.15200
C716        C  0.41404757  0.71869578  0.45539756     0.37100
N717        N  0.43663797  0.73923731  0.49642187    -0.89500
H718        H  0.47357937  0.71389763  0.41228877     0.18200
H719        H  0.32225021  0.70298121  0.40786419     0.18200
N720        N  0.35753929  0.68642403  0.31650942    -0.88500
H721        H  0.46476435  0.72255237  0.50720679     0.35600
H722        H  0.41834016  0.74549986  0.02914870     0.40700
H723        H  0.37027053  0.66003983  0.29728752     0.40300
H724        H  0.36417775  0.71357172  0.29582785     0.35200
C725        C  0.14635147  0.71555116  0.41849129    -0.26600
C726        C  0.14140402  0.70565257  0.47001321    -0.14600
C727        C  0.10532823  0.67691720  0.47566437     0.36000
C728        C  0.07786351  0.66845322  0.43277140    -0.26000
C729        C  0.08590206  0.68374183  0.38300113    -0.15200
C730        C  0.12190008  0.70613114  0.37572368     0.37100
N731        N  0.13546794  0.71908030  0.32498310    -0.89500
H732        H  0.17286198  0.73182355  0.41325926     0.18200
H733        H  0.05071024  0.64901615  0.43850099     0.18200
N734        N  0.09827440  0.65130913  0.52072842    -0.88500
H735        H  0.11184995  0.73907064  0.30851382     0.35600
H736        H  0.13881008  0.69261614  0.30140898     0.40700
H737        H  0.09983120  0.62003568  0.01038137     0.40300
H738        H  0.06653896  0.65654802  0.53190115     0.35200
C739        C  0.11086220  0.72115967  0.07066153    -0.26600
C740        C  0.15601072  0.71595742  0.06686333    -0.14600
C741        C  0.17256124  0.71043418  0.11967887     0.36000
C742        C  0.14682460  0.69546369  0.16143506    -0.26000
C743        C  0.10313982  0.68955596  0.15488348    -0.15200
C744        C  0.08480495  0.70785859  0.11081833     0.37100
N745        N  0.03933336  0.71604142  0.10753075    -0.89500
H746        H  0.09394024  0.73530476  0.04129896     0.18200
H747        H  0.16061145  0.69119085  0.19988515     0.18200
N748        N  0.21108591  0.72873962  0.13490743    -0.88500
H749        H  0.02779858  0.70243977  0.07395997     0.35600
H750        H  0.03343689  0.74830704  0.10293576     0.40700
H751        H  0.22896010  0.72989835  0.10164601     0.40300
H752        H  0.22743152  0.71138036  0.16373546     0.35200
C753        C  0.30222060  0.85564593  0.13991463    -0.26600
C754        C  0.32424273  0.89254927  0.13310061    -0.14600
C755        C  0.32657804  0.90935874  0.08314567     0.36000
C756        C  0.30261684  0.89191259  0.04339911    -0.26000
C757        C  0.28772061  0.85026551  0.04553444    -0.15200
C758        C  0.28453916  0.83490876  0.09688450     0.37100
N759        N  0.25378929  0.80450202  0.10626114    -0.89500
H760        H  0.29587635  0.84463858  0.17899153     0.18200
H761        H  0.29836018  0.91182227  0.01032581     0.18200
N762        N  0.35418886  0.94327569  0.07215196    -0.88500
H763        H  0.25178259  0.79376620  0.14473034     0.35600
H764        H  0.24830281  0.78556853  0.07454184     0.40700
H765        H  0.34446734  0.96956255  0.09356680     0.40300
H766        H  0.35258640  0.95188017  0.03286403     0.35200
C767        C  0.29130557  0.86872110  0.35010857    -0.26600
C768        C  0.32445570  0.89568984  0.35432632    -0.14600
C769        C  0.34392662  0.89878115  0.40197886     0.36000
C770        C  0.32980552  0.87465645  0.44368081    -0.26000
C771        C  0.29222638  0.84913823  0.44513683    -0.15200
C772        C  0.27497168  0.84748879  0.39330376     0.37100
N773        N  0.24101499  0.82277193  0.38098066    -0.89500
H774        H  0.27543699  0.86604930  0.31276531     0.18200
H775        H  0.35042542  0.87933182  0.47466288     0.18200
N776        N  0.37772513  0.92697841  0.41003505    -0.88500
H777        H  0.21696099  0.84321665  0.36664400     0.35600
H778        H  0.23268920  0.80748390  0.41486431     0.40700
H779        H  0.36613584  0.95749149  0.40152960     0.40300
H780        H  0.40250023  0.91914670  0.38419308     0.35200
C781        C  0.32312407  0.56128436  0.40632536    -0.26600
C782        C  0.31260384  0.56889154  0.35407258    -0.14600
C783        C  0.30007524  0.60962253  0.34153677     0.36000
C784        C  0.29513246  0.63977319  0.38143843    -0.26000
C785        C  0.30207531  0.63442215  0.43736953    -0.15200
C786        C  0.33059632  0.59665655  0.43867492     0.37100
N787        N  0.37526581  0.60405509  0.44055232    -0.89500
H788        H  0.33884057  0.53128758  0.41581737     0.18200
H789        H  0.28919434  0.66852881  0.36296626     0.18200
N790        N  0.29303470  0.62090660  0.28779272    -0.88500
H791        H  0.38496679  0.61315823  0.40350928     0.35600
H792        H  0.39272689  0.57582041  0.44767843     0.40700
H793        H  0.32142889  0.61469974  0.26738109     0.40300
H794        H  0.28564464  0.65295349  0.28314652     0.35200
C795        C  0.27685730  0.58630394  0.03062890    -0.26600
C796        C  0.30047064  0.62459177  0.03143340    -0.14600
C797        C  0.33753347  0.61236504  0.06241602     0.36000
C798        C  0.33075805  0.59669034  0.11285189    -0.26000
C799        C  0.30740311  0.56117033  0.11601907    -0.15200
C800        C  0.28049851  0.55450996  0.07173782     0.37100
N801        N  0.25932407  0.51603254  0.06577345    -0.89500
H802        H  0.25631568  0.58114861  0.99782839     0.18200
H803        H  0.35534518  0.60017215  0.14193315     0.18200
N804        N  0.37143442  0.58769940  0.03892407    -0.88500
H805        H  0.24030422  0.51128426  0.09840903     0.35600
H806        H  0.28210865  0.49141981  0.06393962     0.40700
H807        H  0.36100439  0.55780470  0.03034786     0.40300
H808        H  0.39670078  0.58278932  0.06539935     0.35200
C809        C  0.16160696  0.88031882  0.43046565    -0.26600
C810        C  0.20154266  0.87195292  0.45729892    -0.14600
C811        C  0.22496311  0.91043525  0.44956680     0.36000
C812        C  0.22358608  0.93092444  0.39966907    -0.26000
C813        C  0.18615411  0.93246015  0.36898437    -0.15200
C814        C  0.15294218  0.90977479  0.38921456     0.37100
N815        N  0.11012619  0.91791164  0.37023241    -0.89500
H816        H  0.13454768  0.86657094  0.44317630     0.18200
H817        H  0.24698157  0.95413551  0.39172400     0.18200
N818        N  0.22607905  0.94139047  0.48988580    -0.88500
H819        H  0.08807595  0.90168200  0.39214802     0.35600
H820        H  0.10872405  0.90697371  0.33211381     0.40700
H821        H  0.23271456  0.92868086  0.52595998     0.40300
H822        H  0.25010734  0.96232110  0.48207762     0.35200
C823        C  0.21791413  0.91409234  0.11909909    -0.26600
C824        C  0.18165018  0.93981791  0.12344104    -0.14600
C825        C  0.15097062  0.93307470  0.08379621     0.36000
C826        C  0.15997523  0.89975065  0.04661557    -0.26000
C827        C  0.19464445  0.86689473  0.05132018    -0.15200
C828        C  0.21017472  0.87371959  0.10344185     0.37100
N829        N  0.19394107  0.85083302  0.14709448    -0.89500
H830        H  0.24101966  0.91624529  0.14867733     0.18200
H831        H  0.14108282  0.90367928  0.01316128     0.18200
N832        N  0.11373383  0.96034011  0.07656925    -0.88500
H833        H  0.16511832  0.86543745  0.15926691     0.35600
H834        H  0.21485678  0.85195693  0.17882627     0.40700
H835        H  0.11344951  0.98521710  0.10262657     0.40300
H836        H  0.08706686  0.94283396  0.08462509     0.35200
C837        C  0.20548804  0.64594764  0.34727798    -0.26600
C838        C  0.18600977  0.60766125  0.35520381    -0.14600
C839        C  0.17360892  0.59768724  0.40462772     0.36000
C840        C  0.18398889  0.62382093  0.44433468    -0.26000
C841        C  0.21161633  0.65696186  0.44344907    -0.15200
C842        C  0.21689288  0.67116622  0.39054719     0.37100
N843        N  0.23275905  0.71175664  0.38060972    -0.89500
H844        H  0.21212779  0.65614456  0.30803006     0.18200
H845        H  0.15956800  0.62493364  0.47029961     0.18200
N846        N  0.14764221  0.56274324  0.41583810    -0.88500
H847        H  0.24345818  0.71604910  0.34247579     0.35600
H848        H  0.25498272  0.71588513  0.40932294     0.40700
H849        H  0.16389512  0.53507370  0.40415449     0.40300
H850        H  0.11890529  0.56655013  0.39525284     0.35200
C851        C  0.23705650  0.65264937  0.09391082    -0.26600
C852        C  0.21412592  0.64890817  0.04715020    -0.14600
C853        C  0.18151376  0.61735499  0.05407541     0.36000
C854        C  0.16155233  0.61281351  0.10199685    -0.26000
C855        C  0.18879053  0.61044867  0.14396898    -0.17600
C856        C  0.22749350  0.63141230  0.14024168     0.37100
N857        N  0.25499082  0.63582477  0.18402265    -0.89500
H858        H  0.26297149  0.67257575  0.09410752     0.18200
H859        H  0.13343698  0.59413107  0.10359207     0.18200
N860        N  0.18405293  0.57726614  0.02796418    -0.88500
H861        H  0.26848957  0.60658145  0.19444473     0.35600
H862        H  0.23620596  0.64724643  0.21477512     0.40700
H863        H  0.19167261  0.55396677  0.55501763     0.40300
H864        H  0.15314485  0.56900913  0.01803998     0.35200
O865        O  0.14708134  0.56113410  0.80282151    -0.72000
O866        O  0.14412611  0.98262224  0.69043869    -0.72200
O867        O  0.14682111  0.97541790  0.80042428    -0.72100
O868        O  0.14678825  0.56674054  0.69951044    -0.72100
O869        O  0.21539510  0.55662578  0.69529987    -0.72100
O870        O  0.21551910  0.97743657  0.80343670    -0.72100
O871        O  0.21266342  0.97407277  0.69714121    -0.72000
O872        O  0.21571853  0.56161913  0.79509220    -0.72200
V873        V  0.14700259  0.52083709  0.74846865     1.35200
V874        V  0.21323797  0.01693597  0.74785103     1.35200
C875        C  0.18215139  0.57696827  0.81460113     0.77200
C876        C  0.17883662  0.96684282  0.67227020     0.77300
C877        C  0.18213137  0.96292431  0.82208987     0.77200
C878        C  0.18264057  0.57755497  0.68202412     0.77100
C879        C  0.22635274  0.68032323  0.49725959    -0.02700
C880        C  0.21290312  0.83239658  0.00147572    -0.02700
O881        O  0.28650428  0.52754519  0.78630710    -0.72000
O882        O  0.29435558  0.93184425  0.70209393    -0.72200
O883        O  0.29377865  0.94659083  0.80108730    -0.72100
O884        O  0.28405857  0.51317543  0.68086306    -0.72100
O885        O  0.35016304  0.52835076  0.68777370    -0.72100
O886        O  0.36251596  0.93946113  0.79166001    -0.72100
O887        O  0.36052371  0.94357264  0.68583398    -0.72000
O888        O  0.35478523  0.52339588  0.79717821    -0.72200
V889        V  0.29094015  0.48030348  0.74244059     1.35200
V890        V  0.35651520  0.98399656  0.74052928     1.35200
C891        C  0.31856216  0.53807312  0.81192308     0.77200
C892        C  0.32773276  0.92290377  0.67682715     0.77300
C893        C  0.32848350  0.92885890  0.81428627     0.77200
C894        C  0.31443695  0.53317867  0.66337573     0.77100
C895        C  0.28933018  0.66785894  0.99149854    -0.02700
C896        C  0.27585653  0.82113209  0.99671979    -0.02700
O897        O  0.03650084  0.71312590  0.82205851    -0.72000
O898        O  0.47671313  0.70922244  0.69321765    -0.72200
O899        O  0.45553900  0.71146195  0.79384487    -0.72100
O900        O  0.05928477  0.71371459  0.72252804    -0.72100
O901        O  0.05687881  0.64709389  0.70784332    -0.72100
O902        O  0.46887635  0.64601524  0.81318909    -0.72100
O903        O  0.46992402  0.64273972  0.70604339    -0.72000
O904        O  0.05347759  0.64672500  0.81451381    -0.72200
V905        V  0.00710496  0.71075049  0.75768857     1.35200
V906        V  0.01218951  0.64605981  0.76000084     1.35200
C907        C  0.05635023  0.68054920  0.83928158     0.77200
C908        C  0.46024907  0.67553185  0.67967366     0.77300
C909        C  0.44877869  0.68068718  0.82243444     0.77200
C910        C  0.07387781  0.68207522  0.69893033     0.77100
C911        C  0.17998758  0.72506905  0.00916374    -0.02700
C912        C  0.33175624  0.71123701  0.00208827    -0.02700
O913        O  0.03467914  0.85857345  0.79901406    -0.72000
O914        O  0.44898344  0.84997813  0.69369846    -0.72200
O915        O  0.44776985  0.85401619  0.79861226    -0.72100
O916        O  0.03463278  0.85509902  0.69355791    -0.72100
O917        O  0.03173192  0.78742279  0.68947630    -0.72100
O918        O  0.46497810  0.78826024  0.81152555    -0.72100
O919        O  0.44817377  0.78348501  0.71071417    -0.72000
O920        O  0.04854641  0.79185065  0.78975991    -0.72200
V921        V  0.99162647  0.85376844  0.74635415     1.35200
V922        V  0.99822652  0.78897552  0.75035869     1.35200
C923        C  0.05730643  0.82585294  0.81069440     0.77200
C924        C  0.43368350  0.81452691  0.68503287     0.77300
C925        C  0.44220707  0.82018251  0.82336803     0.77200
C926        C  0.04675725  0.82077244  0.67259374     0.77100
C927        C  0.17221917  0.78760983  0.99739204    -0.02700
C928        C  0.32164112  0.77404151  0.00159682    -0.02700
C929        C  0.37290774  0.79656908  0.85558158    -0.26600
C930        C  0.41046263  0.81651022  0.86532102    -0.14600
C931        C  0.42115241  0.82327008  0.91669582     0.36000
C932        C  0.39574090  0.80738761  0.95635642    -0.26000
C933        C  0.35425148  0.78887527  0.95125195    -0.15200
C934        C  0.34467936  0.78509706  0.89578512     0.37100
N935        N  0.30719925  0.76665641  0.87822347    -0.89500
H936        H  0.36495838  0.78988698  0.81552812     0.18200
H937        H  0.41455556  0.80789675  0.99030673     0.18200
N938        N  0.45851549  0.84530826  0.93113340    -0.88500
H939        H  0.29553540  0.77962121  0.84327091     0.35600
H940        H  0.28631660  0.76856433  0.90903598     0.40700
H941        H  0.47491741  0.85647730  0.89895911     0.40300
H942        H  0.47911666  0.82444726  0.95156569     0.35200
C943        C  0.37325871  0.82241149  0.55926221    -0.26600
C944        C  0.34907511  0.78581054  0.55501278    -0.14600
C945        C  0.34466013  0.76815263  0.60600359     0.36000
C946        C  0.37217449  0.77740280  0.64794142    -0.26000
C947        C  0.40239213  0.80793475  0.64339867    -0.15200
C948        C  0.40214085  0.83165535  0.59832971     0.37100
N949        N  0.42988388  0.86619511  0.59243213    -0.89500
H950        H  0.37070810  0.84568352  0.53166176     0.18200
H951        H  0.36762499  0.76310301  0.68559301     0.18200
N952        N  0.30704587  0.74755248  0.61907486    -0.88500
H953        H  0.42468516  0.88170668  0.55687638     0.35600
H954        H  0.46123129  0.85358676  0.59118452     0.40700
H955        H  0.29365372  0.73324614  0.58715726     0.40300
H956        H  0.30553166  0.73407902  0.65620947     0.35200
C957        C  0.15566985  0.80132066  0.89208956    -0.26600
C958        C  0.14034343  0.79529163  0.94448037    -0.14600
C959        C  0.09362536  0.79156579  0.94079773     0.36000
C960        C  0.06922092  0.80936520  0.89995605    -0.26000
C961        C  0.08704097  0.82350037  0.85492766    -0.15200
C962        C  0.13101386  0.81711188  0.84946782     0.37100
N963        N  0.15022521  0.82276218  0.79949158    -0.89500
H964        H  0.18377562  0.78546094  0.87903974     0.18200
H965        H  0.03494416  0.80638392  0.90079885     0.18200
N966        N  0.06860186  0.76754570  0.97500975    -0.88500
H967        H  0.18247108  0.81287806  0.79941927     0.35600
H968        H  0.14878005  0.85484103  0.79084408     0.40700
H969        H  0.05251906  0.74431356  0.45618885     0.40300
H970        H  0.04342347  0.78555277  0.99112621     0.35200
C971        C  0.06746928  0.83512205  0.58216372    -0.26600
C972        C  0.07807290  0.81860777  0.62994732    -0.14600
C973        C  0.11886767  0.80073193  0.63686172     0.36000
C974        C  0.14716248  0.79754468  0.59390587    -0.26000
C975        C  0.13613685  0.80523884  0.54203132    -0.15200
C976        C  0.09569416  0.83206013  0.53963804     0.37100
N977        N  0.08163975  0.85940237  0.49774525    -0.89500
H978        H  0.03700553  0.85232633  0.57789164     0.18200
H979        H  0.17919078  0.78783768  0.60005524     0.18200
N980        N  0.13210088  0.78768379  0.68811877    -0.88500
H981        H  0.05071157  0.85258895  0.48632358     0.35600
H982        H  0.07688868  0.88976184  0.01142065     0.40700
H983        H  0.12838971  0.81411268  0.71135162     0.40300
H984        H  0.16461135  0.77906370  0.68899151     0.35200
C985        C  0.35650191  0.68400502  0.60248881    -0.26600
C986        C  0.36722619  0.69058619  0.54910050    -0.14600
C987        C  0.41081436  0.66875845  0.54420760     0.36000
C988        C  0.44103361  0.66780606  0.58562372    -0.26000
C989        C  0.42874066  0.67572358  0.63608479    -0.15200
C990        C  0.38514742  0.67868696  0.64490132     0.37100
N991        N  0.36965588  0.67361424  0.69675070    -0.89500
H992        H  0.32468336  0.67801957  0.61234164     0.18200
H993        H  0.47362571  0.65651737  0.57866542     0.18200
N994        N  0.42608483  0.64540303  0.49959791    -0.88500
H995        H  0.33629255  0.67592493  0.69801271     0.35600
H996        H  0.38086480  0.69862785  0.71763533     0.40700
H997        H  0.43611594  0.61524507  0.01157563     0.40300
H998        H  0.45569834  0.65609826  0.48819705     0.35200
C999        C  0.43944969  0.70702962  0.91186962    -0.26600
C1000       C  0.42203418  0.68831148  0.86837256    -0.14600
C1001       C  0.37800812  0.68956472  0.86497510     0.36000
C1002       C  0.35403800  0.69751255  0.90945722    -0.26000
C1003       C  0.36856578  0.70637040  0.95735142    -0.15200
C1004       C  0.41380035  0.71833061  0.95538781     0.37100
N1005       N  0.43655530  0.73881138  0.99633948    -0.89500
H1006       H  0.47323373  0.71324196  0.91222732     0.18200
H1007       H  0.32168244  0.70363202  0.90800075     0.18200
N1008       N  0.35674057  0.68754989  0.81625338    -0.88500
H1009       H  0.46482007  0.72230407  0.00695921     0.35600
H1010       H  0.41827817  0.74575961  0.52915137     0.40700
H1011       H  0.36896772  0.66093202  0.79709697     0.40300
H1012       H  0.36396455  0.71449745  0.79547712     0.35200
C1013       C  0.14618333  0.71585142  0.91893375    -0.26600
C1014       C  0.14144714  0.70589197  0.97038947    -0.14600
C1015       C  0.10548561  0.67706496  0.97608420     0.36000
C1016       C  0.07799387  0.66851656  0.93313126    -0.26000
C1017       C  0.08567627  0.68426605  0.88338897    -0.15200
C1018       C  0.12160397  0.70676620  0.87619055     0.37100
N1019       N  0.13510480  0.72004412  0.82554417    -0.89500
H1020       H  0.17272512  0.73191499  0.91373932     0.18200
H1021       H  0.05098331  0.64890083  0.93884920     0.18200
N1022       N  0.09857535  0.65151855  0.02123457    -0.88500
H1023       H  0.11146770  0.74009646  0.80926743     0.35600
H1024       H  0.13843775  0.69373250  0.80171952     0.40700
H1025       H  0.09935783  0.61986027  0.50974646     0.40300
H1026       H  0.06681406  0.65661637  0.03235998     0.35200
C1027       C  0.11081849  0.72052979  0.57046016    -0.26600
C1028       C  0.15593251  0.71561057  0.56674409    -0.14600
C1029       C  0.17248788  0.71059884  0.61962238     0.36000
C1030       C  0.14674067  0.69592883  0.66158912    -0.26000
C1031       C  0.10303991  0.68994997  0.65511521    -0.15200
C1032       C  0.08472135  0.70775492  0.61078694     0.37100
N1033       N  0.03926342  0.71607923  0.60739528    -0.89500
H1034       H  0.09397142  0.73406650  0.54083622     0.18200
H1035       H  0.16052247  0.69196074  0.70007413     0.18200
N1036       N  0.21106452  0.72902464  0.63452556    -0.88500
H1037       H  0.02769008  0.70219693  0.57403519     0.35600
H1038       H  0.03348074  0.74831715  0.60231489     0.40700
H1039       H  0.22884782  0.73016393  0.60113206     0.40300
H1040       H  0.22752020  0.71187712  0.66341531     0.35200
C1041       C  0.30306150  0.85656617  0.64039855    -0.26600
C1042       C  0.32429221  0.89386146  0.63310905    -0.14600
C1043       C  0.32564305  0.91070248  0.58308964     0.36000
C1044       C  0.30204076  0.89238796  0.54355707    -0.26000
C1045       C  0.28759746  0.85051870  0.54616699    -0.15200
C1046       C  0.28508482  0.83550498  0.59783937     0.37100
N1047       N  0.25515414  0.80453786  0.60821496    -0.89500
H1048       H  0.29737584  0.84552356  0.67962658     0.18200
H1049       H  0.29753965  0.91192913  0.51023181     0.18200
N1050       N  0.35189092  0.94564427  0.57183038    -0.88500
H1051       H  0.25326624  0.79389331  0.64673156     0.35600
H1052       H  0.24752593  0.78670171  0.57623790     0.40700
H1053       H  0.34201325  0.97139973  0.59408776     0.40300
H1054       H  0.34917911  0.95470888  0.53276457     0.35200
C1055       C  0.29232747  0.86956770  0.84969323    -0.26600
C1056       C  0.32552123  0.89641950  0.85433892    -0.14600
C1057       C  0.34492268  0.89911876  0.90210066     0.36000
C1058       C  0.33055920  0.87478196  0.94349441    -0.26000
C1059       C  0.29276792  0.84951237  0.94459918    -0.15200
C1060       C  0.27557767  0.84837297  0.89259404     0.37100
N1061       N  0.24125998  0.82422991  0.87979434    -0.89500
H1062       H  0.27658965  0.86714868  0.81223015     0.18200
H1063       H  0.35113974  0.87915087  0.97456776     0.18200
N1064       N  0.37894431  0.92699412  0.91054980    -0.88500
H1065       H  0.21727143  0.84482654  0.86532195     0.35600
H1066       H  0.23289134  0.80903460  0.91367422     0.40700
H1067       H  0.36761249  0.95763191  0.90228636     0.40300
H1068       H  0.40370932  0.91912962  0.88470625     0.35200
C1069       C  0.32399937  0.56182001  0.90673901    -0.26600
C1070       C  0.31291299  0.56937328  0.85469926    -0.14600
C1071       C  0.29969892  0.60989556  0.84218876     0.36000
C1072       C  0.29477565  0.63998351  0.88202471    -0.26000
C1073       C  0.30215664  0.63468319  0.93777196    -0.15200
C1074       C  0.33114499  0.59726518  0.93897498     0.37100
N1075       N  0.37568679  0.60507602  0.94085672    -0.89500
H1076       H  0.34025979  0.53202830  0.91597643     0.18200
H1077       H  0.28879312  0.66869915  0.86358164     0.18200
N1078       N  0.29213680  0.62107034  0.78849492    -0.88500
H1079       H  0.38534697  0.61399195  0.90372467     0.35600
H1080       H  0.39336674  0.57702192  0.94829579     0.40700
H1081       H  0.32042274  0.61510607  0.76777959     0.40300
H1082       H  0.28447531  0.65306510  0.78386772     0.35200
C1083       C  0.27655992  0.58662095  0.53109227    -0.26600
C1084       C  0.30054323  0.62463549  0.53129251    -0.14600
C1085       C  0.33786612  0.61208550  0.56175404     0.36000
C1086       C  0.33137074  0.59692247  0.61248128    -0.26000
C1087       C  0.30724456  0.56202553  0.61657585    -0.15200
C1088       C  0.27981266  0.55535544  0.57279023     0.37100
N1089       N  0.25748059  0.51743284  0.56802216    -0.89500
H1090       H  0.25575414  0.58145522  0.49855773     0.18200
H1091       H  0.35648581  0.59996902  0.64098376     0.18200
N1092       N  0.37122006  0.58674488  0.53815720    -0.88500
H1093       H  0.23870012  0.51362687  0.60107443     0.35600
H1094       H  0.27941629  0.49213386  0.56615290     0.40700
H1095       H  0.36025899  0.55694000  0.53017608     0.40300
H1096       H  0.39671501  0.58172884  0.56428423     0.35200
C1097       C  0.16199332  0.88076656  0.93004108    -0.26600
C1098       C  0.20197076  0.87235808  0.95678144    -0.14600
C1099       C  0.22554133  0.91076478  0.94904100     0.36000
C1100       C  0.22417393  0.93125193  0.89919416    -0.26000
C1101       C  0.18657082  0.93314236  0.86888009    -0.15200
C1102       C  0.15325768  0.91065893  0.88932172     0.37100
N1103       N  0.11023307  0.91977540  0.87159516    -0.89500
H1104       H  0.13484238  0.86701910  0.94280579     0.18200
H1105       H  0.24771393  0.95430643  0.89115059     0.18200
N1106       N  0.22670778  0.94174161  0.98926484    -0.88500
H1107       H  0.08827896  0.90348185  0.89358245     0.35600
H1108       H  0.10787926  0.90961744  0.83325247     0.40700
H1109       H  0.23352719  0.92887181  0.02512167     0.40300
H1110       H  0.25088885  0.96249164  0.98142903     0.35200
C1111       C  0.21768116  0.91202481  0.62208626    -0.26600
C1112       C  0.18211865  0.93878565  0.62505042    -0.14600
C1113       C  0.15205311  0.93310368  0.58467366     0.36000
C1114       C  0.16038696  0.89977350  0.54743569    -0.26000
C1115       C  0.19440316  0.86627865  0.55231348    -0.15200
C1116       C  0.20943810  0.87214022  0.60502664     0.37100
N1117       N  0.19293953  0.84881456  0.64811596    -0.89500
H1118       H  0.23929138  0.91292136  0.65368946     0.18200
H1119       H  0.14160143  0.90407166  0.51383548     0.18200
N1120       N  0.11590401  0.96158601  0.57767650    -0.88500
H1121       H  0.16445496  0.86383280  0.66075836     0.35600
H1122       H  0.21388494  0.84897939  0.67991086     0.40700
H1123       H  0.12702877  0.99190808  0.57430002     0.40300
H1124       H  0.09691069  0.96025505  0.61095785     0.35200
C1125       C  0.20500807  0.64681732  0.84732639    -0.26600
C1126       C  0.18570819  0.60840573  0.85504354    -0.14600
C1127       C  0.17374992  0.59799182  0.90450365     0.36000
C1128       C  0.18403710  0.62402102  0.94434485    -0.26000
C1129       C  0.21157939  0.65724544  0.94357100    -0.15200
C1130       C  0.21669820  0.67173140  0.89074432     0.37100
N1131       N  0.23269738  0.71232238  0.88103396    -0.89500
H1132       H  0.21140880  0.65728428  0.80812875     0.18200
H1133       H  0.15965102  0.62485594  0.97042130     0.18200
N1134       N  0.14843065  0.56257150  0.91567827    -0.88500
H1135       H  0.24373701  0.71664457  0.84305781     0.35600
H1136       H  0.25453246  0.71665109  0.91018107     0.40700
H1137       H  0.16505092  0.53520142  0.90365220     0.40300
H1138       H  0.11953897  0.56602335  0.89535930     0.35200
C1139       C  0.23689428  0.65282952  0.59382544    -0.26600
C1140       C  0.21404259  0.64895291  0.54702950    -0.14600
C1141       C  0.18112576  0.61769897  0.55409335     0.36000
C1142       C  0.16101141  0.61356295  0.60196833    -0.26000
C1143       C  0.18821428  0.61111288  0.64395506    -0.17600
C1144       C  0.22699616  0.63196165  0.64030873     0.37100
N1145       N  0.25419759  0.63668150  0.68431316    -0.89500
H1146       H  0.26286536  0.67268837  0.59399889     0.18200
H1147       H  0.13276608  0.59506459  0.60361034     0.18200
N1148       N  0.18336292  0.57746132  0.52828495    -0.88500
H1149       H  0.26790412  0.60755926  0.69488016     0.35600
H1150       H  0.23520366  0.64804321  0.71492118     0.40700
H1151       H  0.19333754  0.55381657  0.05436704     0.40300
H1152       H  0.15244137  0.56962236  0.51787425     0.35200
O1153       O  0.64724190  0.06034270  0.30322180    -0.72000
O1154       O  0.64387424  0.48255481  0.19025215    -0.72200
O1155       O  0.64649796  0.47467792  0.30019909    -0.72100
O1156       O  0.64720756  0.06651166  0.19990058    -0.72100
O1157       O  0.71574034  0.05580881  0.19538149    -0.72100
O1158       O  0.71517792  0.47660676  0.30348531    -0.72100
O1159       O  0.71230735  0.47341116  0.19699003    -0.72000
O1160       O  0.71583567  0.06076031  0.29524670    -0.72200
V1161       V  0.64699376  0.02037592  0.24855490     1.35200
V1162       V  0.71319065  0.51611704  0.24791952     1.35200
C1163       C  0.68234946  0.07610851  0.31492100     0.77200
C1164       C  0.67847156  0.46687106  0.17170839     0.77300
C1165       C  0.68174497  0.46213191  0.32202366     0.77200
C1166       C  0.68312302  0.07700954  0.18222107     0.77100
C1167       C  0.72638231  0.18042157  0.99746684    -0.02700
C1168       C  0.71252250  0.33202976  0.50209198    -0.02700
O1169       O  0.78624021  0.02696875  0.28529398    -0.72000
O1170       O  0.79415129  0.43045847  0.20214791    -0.72200
O1171       O  0.79301181  0.44589472  0.30077877    -0.72100
O1172       O  0.78408665  0.01183749  0.17979600    -0.72100
O1173       O  0.85006363  0.02727383  0.18744246    -0.72100
O1174       O  0.86170221  0.43823986  0.29135936    -0.72100
O1175       O  0.86020976  0.44244881  0.18563010    -0.72000
O1176       O  0.85437820  0.02229447  0.29694144    -0.72200
V1177       V  0.79059117  0.97932676  0.24183883     1.35200
V1178       V  0.85612948  0.48285722  0.24026362     1.35200
C1179       C  0.81819630  0.03738319  0.31126348     0.77200
C1180       C  0.82753408  0.42158740  0.17681603     0.77300
C1181       C  0.82756126  0.42787905  0.31397276     0.77200
C1182       C  0.81449864  0.03201647  0.16264925     0.77100
C1183       C  0.78936522  0.16777023  0.49119936    -0.02700
C1184       C  0.77560051  0.32097661  0.49743898    -0.02700
O1185       O  0.53649611  0.21243904  0.32214494    -0.72000
O1186       O  0.97733947  0.20883822  0.19305792    -0.72200
O1187       O  0.95575128  0.21091223  0.29352095    -0.72100
O1188       O  0.55981402  0.21303665  0.22284239    -0.72100
O1189       O  0.55668477  0.14661712  0.20721652    -0.72100
O1190       O  0.96946366  0.14568563  0.31358297    -0.72100
O1191       O  0.96960602  0.14256176  0.20641866    -0.72000
O1192       O  0.55402694  0.14620571  0.31391931    -0.72200
V1193       V  0.50744153  0.21022262  0.25764815     1.35200
V1194       V  0.51235264  0.14560070  0.25986540     1.35200
C1195       C  0.55662454  0.17993084  0.33898984     0.77200
C1196       C  0.96028125  0.17537009  0.17990148     0.77300
C1197       C  0.94933248  0.18037123  0.32264611     0.77200
C1198       C  0.57403238  0.18150054  0.19872275     0.77100
C1199       C  0.67979329  0.22482134  0.50902618    -0.02700
C1200       C  0.83183077  0.21123308  0.50190606    -0.02700
O1201       O  0.53479766  0.35782252  0.29874423    -0.72000
O1202       O  0.94879200  0.34989264  0.19382340    -0.72200
O1203       O  0.94812870  0.35374920  0.29879666    -0.72100
O1204       O  0.53458372  0.35488191  0.19328926    -0.72100
O1205       O  0.53263649  0.28711732  0.18964767    -0.72100
O1206       O  0.96406751  0.28760639  0.31042445    -0.72100
O1207       O  0.94865774  0.28312469  0.20940317    -0.72000
O1208       O  0.54772510  0.29086524  0.29019335    -0.72200
V1209       V  0.49169677  0.35336355  0.24623391     1.35200
V1210       V  0.49812725  0.28845617  0.24985690     1.35200
C1211       C  0.55662105  0.32478244  0.31105562     0.77200
C1212       C  0.93376429  0.31440354  0.18461253     0.77300
C1213       C  0.94202898  0.31980786  0.32303265     0.77200
C1214       C  0.54738422  0.32061901  0.17271789     0.77100
C1215       C  0.67170677  0.28730015  0.49767068    -0.02700
C1216       C  0.82163278  0.27405687  0.50177260    -0.02700
C1217       C  0.87303241  0.29595599  0.35569530    -0.26600
C1218       C  0.91035430  0.31631571  0.36515188    -0.14600
C1219       C  0.92076276  0.32393552  0.41645644     0.36000
C1220       C  0.89559353  0.30791151  0.45637485    -0.26000
C1221       C  0.85423473  0.28901561  0.45140494    -0.15200
C1222       C  0.84477472  0.28482218  0.39597792     0.37100
N1223       N  0.80746673  0.26607727  0.37852962    -0.89500
H1224       H  0.86521249  0.28877085  0.31574676     0.18200
H1225       H  0.91442301  0.30863363  0.49034936     0.18200
N1226       N  0.95752702  0.34703441  0.43052137    -0.88500
H1227       H  0.79554040  0.27912543  0.34375897     0.35600
H1228       H  0.78675790  0.26768149  0.40954759     0.40700
H1229       H  0.97384317  0.35793134  0.39813095     0.40300
H1230       H  0.97852487  0.32695592  0.45151333     0.35200
C1231       C  0.87353870  0.32212022  0.05905990    -0.26600
C1232       C  0.84904669  0.28574038  0.05498028    -0.14600
C1233       C  0.84435456  0.26841447  0.10619582     0.36000
C1234       C  0.87163332  0.27798634  0.14823150    -0.26000
C1235       C  0.90234880  0.30796647  0.14325235    -0.15200
C1236       C  0.90284603  0.33095630  0.09774522     0.37100
N1237       N  0.93199732  0.36422030  0.09090402    -0.89500
H1238       H  0.87122834  0.34536207  0.03144365     0.18200
H1239       H  0.86666429  0.26429346  0.18614126     0.18200
N1240       N  0.80660877  0.24807510  0.11933255    -0.88500
H1241       H  0.92753397  0.37908188  0.05480544     0.35600
H1242       H  0.96285771  0.35037644  0.09021851     0.40700
H1243       H  0.79374642  0.23316914  0.08757467     0.40300
H1244       H  0.80522162  0.23456333  0.15647412     0.35200
C1245       C  0.65451945  0.30133824  0.39277421    -0.26600
C1246       C  0.63935356  0.29478772  0.44508088    -0.14600
C1247       C  0.59249974  0.29070231  0.44157475     0.36000
C1248       C  0.56796551  0.30754129  0.40027048    -0.26000
C1249       C  0.58577372  0.32209333  0.35550955    -0.15200
C1250       C  0.62966565  0.31684440  0.35038391     0.37100
N1251       N  0.64905946  0.32392252  0.30100275    -0.89500
H1252       H  0.68265132  0.28598590  0.37921026     0.18200
H1253       H  0.53368429  0.30424262  0.40097031     0.18200
N1254       N  0.56729351  0.26773136  0.47673329    -0.88500
H1255       H  0.66743578  0.29708718  0.29080622     0.35600
H1256       H  0.66926018  0.34892219  0.30396693     0.40700
H1257       H  0.55353702  0.24496018  0.95336405     0.40300
H1258       H  0.54192445  0.28617565  0.49172075     0.35200
C1259       C  0.56808336  0.33525433  0.08230439    -0.26600
C1260       C  0.57885683  0.31883078  0.13010325    -0.14600
C1261       C  0.61986338  0.30139286  0.13692241     0.36000
C1262       C  0.64799489  0.29810427  0.09383244    -0.26000
C1263       C  0.63671497  0.30555798  0.04187088    -0.15200
C1264       C  0.59607193  0.33210588  0.03954354     0.37100
N1265       N  0.58161090  0.35921229  0.99755507    -0.89500
H1266       H  0.53756364  0.35234952  0.07813782     0.18200
H1267       H  0.67989591  0.28816222  0.10006918     0.18200
N1268       N  0.63346927  0.28884672  0.18819178    -0.88500
H1269       H  0.55064822  0.35212400  0.98657818     0.35600
H1270       H  0.57721271  0.38992303  0.51183274     0.40700
H1271       H  0.63007349  0.31560559  0.21095021     0.40300
H1272       H  0.66596160  0.28011721  0.18874927     0.35200
C1273       C  0.85641407  0.18434098  0.10294139    -0.26600
C1274       C  0.86713951  0.19068133  0.04943659    -0.14600
C1275       C  0.91078700  0.16886640  0.04466167     0.36000
C1276       C  0.94093487  0.16790803  0.08608607    -0.26000
C1277       C  0.92866742  0.17584926  0.13647920    -0.15200
C1278       C  0.88509923  0.17924142  0.14535229     0.37100
N1279       N  0.86968955  0.17504820  0.19736210    -0.89500
H1280       H  0.82463470  0.17835708  0.11300126     0.18200
H1281       H  0.97353628  0.15660923  0.07917257     0.18200
N1282       N  0.92632480  0.14554403  0.00014134    -0.88500
H1283       H  0.83633872  0.17763034  0.19876827     0.35600
H1284       H  0.88122972  0.20023050  0.21764929     0.40700
H1285       H  0.93576992  0.11508804  0.51102691     0.40300
H1286       H  0.95593568  0.15627806  0.98880779     0.35200
C1287       C  0.93985447  0.20742164  0.41194189    -0.26600
C1288       C  0.92266543  0.18819662  0.36862865    -0.14600
C1289       C  0.87868865  0.18890694  0.36523623     0.36000
C1290       C  0.85457871  0.19701939  0.40953080    -0.26000
C1291       C  0.86883725  0.20652212  0.45728732    -0.15200
C1292       C  0.91404619  0.21869549  0.45539774     0.37100
N1293       N  0.93663683  0.23923802  0.49642114    -0.89500
H1294       H  0.97357728  0.21389685  0.41228763     0.18200
H1295       H  0.82224751  0.20297977  0.40786757     0.18200
N1296       N  0.85753423  0.18642656  0.31651027    -0.88500
H1297       H  0.96476379  0.22255506  0.50720627     0.35600
H1298       H  0.91833976  0.24550835  0.02914883     0.40700
H1299       H  0.87026435  0.16004248  0.29728738     0.40300
H1300       H  0.86417188  0.21357450  0.29582879     0.35200
C1301       C  0.64634896  0.21554892  0.41849048    -0.26600
C1302       C  0.64140207  0.20565035  0.47001208    -0.14600
C1303       C  0.60532619  0.17691472  0.47566288     0.36000
C1304       C  0.57786030  0.16845262  0.43277002    -0.26000
C1305       C  0.58589806  0.18374282  0.38300011    -0.15200
C1306       C  0.62189695  0.20613041  0.37572283     0.37100
N1307       N  0.63546542  0.21907891  0.32498229    -0.89500
H1308       H  0.67285996  0.23182025  0.41325913     0.18200
H1309       H  0.55070675  0.14901596  0.43849937     0.18200
N1310       N  0.59827216  0.15130629  0.52072662    -0.88500
H1311       H  0.61184779  0.23906976  0.30851252     0.35600
H1312       H  0.63880719  0.19261485  0.30140851     0.40700
H1313       H  0.59983348  0.12003579  0.01038241     0.40300
H1314       H  0.56653713  0.15654617  0.53190061     0.35200
C1315       C  0.61085822  0.22116311  0.07065731    -0.26600
C1316       C  0.65600734  0.21596191  0.06686095    -0.14600
C1317       C  0.67255716  0.21044089  0.11967700     0.36000
C1318       C  0.64682002  0.19547237  0.16143366    -0.26000
C1319       C  0.60313601  0.18956156  0.15488066    -0.15200
C1320       C  0.58480075  0.20786175  0.11081399     0.37100
N1321       N  0.53932858  0.21604086  0.10752433    -0.89500
H1322       H  0.59393561  0.23530544  0.04129302     0.18200
H1323       H  0.66060639  0.19120116  0.19988428     0.18200
N1324       N  0.71108211  0.22874588  0.13490502    -0.88500
H1325       H  0.52779515  0.20243661  0.07395426     0.35600
H1326       H  0.53342917  0.24830586  0.10292736     0.40700
H1327       H  0.72895798  0.22990122  0.10164419     0.40300
H1328       H  0.72742584  0.21138853  0.16373610     0.35200
C1329       C  0.80221380  0.35564680  0.13991315    -0.26600
C1330       C  0.82423721  0.39254973  0.13310251    -0.14600
C1331       C  0.82657537  0.40936046  0.08314853     0.36000
C1332       C  0.80261536  0.39191634  0.04339932    -0.26000
C1333       C  0.78771827  0.35026938  0.04553199    -0.15200
C1334       C  0.78453428  0.33491118  0.09688034     0.37100
N1335       N  0.75378316  0.30450482  0.10625246    -0.89500
H1336       H  0.79586733  0.34463857  0.17898902     0.18200
H1337       H  0.79836022  0.41182759  0.01032693     0.18200
N1338       N  0.85418841  0.44327629  0.07215842    -0.88500
H1339       H  0.75177452  0.29376964  0.14472095     0.35600
H1340       H  0.74830400  0.28556759  0.07453360     0.40700
H1341       H  0.84446617  0.46956307  0.09357306     0.40300
H1342       H  0.85258842  0.45188163  0.03287082     0.35200
C1343       C  0.79130595  0.36871941  0.35011372    -0.26600
C1344       C  0.82445349  0.39569078  0.35433220    -0.14600
C1345       C  0.84392352  0.39878382  0.40198513     0.36000
C1346       C  0.82980461  0.37465714  0.44368635    -0.26000
C1347       C  0.79222640  0.34913759  0.44514185    -0.15200
C1348       C  0.77497247  0.34748714  0.39330893     0.37100
N1349       N  0.74101654  0.32276968  0.38098586    -0.89500
H1350       H  0.77543812  0.36604628  0.31277020     0.18200
H1351       H  0.85042391  0.37933369  0.47466869     0.18200
N1352       N  0.87771836  0.42698504  0.41004256    -0.88500
H1353       H  0.71696274  0.34321409  0.36664843     0.35600
H1354       H  0.73269040  0.30748161  0.41486942     0.40700
H1355       H  0.86612595  0.45749655  0.40153761     0.40300
H1356       H  0.90249439  0.41915661  0.38419954     0.35200
C1357       C  0.82312894  0.06128591  0.40633020    -0.26600
C1358       C  0.81260330  0.06889044  0.35407853    -0.14600
C1359       C  0.80007130  0.10962028  0.34154165     0.36000
C1360       C  0.79512903  0.13977196  0.38144193    -0.26000
C1361       C  0.80207448  0.13442219  0.43737215    -0.15200
C1362       C  0.83059990  0.09666011  0.43867662     0.37100
N1363       N  0.87526860  0.10406401  0.44054796    -0.89500
H1364       H  0.83884959  0.03129115  0.41582180     0.18200
H1365       H  0.78919186  0.16852742  0.36296956     0.18200
N1366       N  0.79302945  0.12090301  0.28779767    -0.88500
H1367       H  0.88496584  0.11316341  0.40350188     0.35600
H1368       H  0.89273336  0.07583197  0.44767565     0.40700
H1369       H  0.82142421  0.11469736  0.26738598     0.40300
H1370       H  0.78563820  0.15294927  0.28315119     0.35200
C1371       C  0.77685881  0.08630856  0.03063643    -0.26600
C1372       C  0.80047161  0.12459672  0.03144090    -0.14600
C1373       C  0.83753288  0.11237163  0.06242740     0.36000
C1374       C  0.83075618  0.09669557  0.11286277    -0.26000
C1375       C  0.80740260  0.06117420  0.11602759    -0.15200
C1376       C  0.78049960  0.05451411  0.07174492     0.37100
N1377       N  0.75932545  0.01603656  0.06577885    -0.89500
H1378       H  0.75631721  0.08115324  0.99783597     0.18200
H1379       H  0.85534163  0.10017843  0.14194603     0.18200
N1380       N  0.87143718  0.08770946  0.03893782    -0.88500
H1381       H  0.74030618  0.01128650  0.09841458     0.35600
H1382       H  0.78211003  0.99142408  0.06394282     0.40700
H1383       H  0.86101061  0.05781325  0.03036224     0.40300
H1384       H  0.89670301  0.08280295  0.06541440     0.35200
C1385       C  0.66160502  0.38031650  0.43046902    -0.26600
C1386       C  0.70154130  0.37195110  0.45730120    -0.14600
C1387       C  0.72496048  0.41043362  0.44956708     0.36000
C1388       C  0.72358241  0.43092136  0.39966783    -0.26000
C1389       C  0.68614988  0.43245587  0.36898338    -0.15200
C1390       C  0.65293872  0.40977142  0.38921686     0.37100
N1391       N  0.61012205  0.41790844  0.37023734    -0.89500
H1392       H  0.63454688  0.36656827  0.44318040     0.18200
H1393       H  0.74697728  0.45413258  0.39172120     0.18200
N1394       N  0.72607388  0.44139009  0.48988491    -0.88500
H1395       H  0.58807277  0.40167885  0.39215429     0.35600
H1396       H  0.60871854  0.40697051  0.33211876     0.40700
H1397       H  0.73270844  0.42868171  0.52596035     0.40300
H1398       H  0.75010160  0.46232131  0.48207710     0.35200
C1399       C  0.71791019  0.41409715  0.11909174    -0.26600
C1400       C  0.68164555  0.43982144  0.12343396    -0.14600
C1401       C  0.65096689  0.43307804  0.08378808     0.36000
C1402       C  0.65997146  0.39975262  0.04660925    -0.26000
C1403       C  0.69464120  0.36689729  0.05131554    -0.15200
C1404       C  0.71017130  0.37372397  0.10343701     0.37100
N1405       N  0.69393825  0.35083866  0.14709104    -0.89500
H1406       H  0.74101797  0.41625223  0.14866712     0.18200
H1407       H  0.64107884  0.40367989  0.01315484     0.18200
N1408       N  0.61373227  0.46034548  0.07655703    -0.88500
H1409       H  0.66511571  0.36544359  0.15926361     0.35600
H1410       H  0.71485432  0.35196343  0.17882242     0.40700
H1411       H  0.61344703  0.48522145  0.10261578     0.40300
H1412       H  0.58706385  0.44284027  0.08460877     0.35200
C1413       C  0.70548155  0.14594126  0.34727745    -0.26600
C1414       C  0.68600574  0.10765423  0.35520676    -0.14600
C1415       C  0.67360942  0.09767981  0.40463218     0.36000
C1416       C  0.68398924  0.12381626  0.44433705    -0.26000
C1417       C  0.71161454  0.15695940  0.44344782    -0.15200
C1418       C  0.71688808  0.17116197  0.39054363     0.37100
N1419       N  0.73275249  0.21175240  0.38059930    -0.89500
H1420       H  0.71211822  0.15613724  0.30802836     0.18200
H1421       H  0.65956744  0.12493101  0.47030095     0.18200
N1422       N  0.64764699  0.06273305  0.41584578    -0.88500
H1423       H  0.74345317  0.21604147  0.34246567     0.35600
H1424       H  0.75497495  0.21588604  0.40931293     0.40700
H1425       H  0.66390176  0.03506481  0.40416141     0.40300
H1426       H  0.61890857  0.06653643  0.39526252     0.35200
C1427       C  0.73705652  0.15265383  0.09391912    -0.26600
C1428       C  0.71412647  0.14891320  0.04715780    -0.14600
C1429       C  0.68151288  0.11736214  0.05408348     0.36000
C1430       C  0.66154917  0.11282403  0.10200425    -0.26000
C1431       C  0.68878702  0.11045569  0.14397687    -0.17600
C1432       C  0.72749122  0.13141789  0.14025022     0.37100
N1433       N  0.75498816  0.13582953  0.18403139    -0.89500
H1434       H  0.76297246  0.17257904  0.09411695     0.18200
H1435       H  0.63343236  0.09414366  0.10359850     0.18200
N1436       N  0.68405600  0.07727050  0.02797921    -0.88500
H1437       H  0.76848408  0.10658522  0.19445436     0.35600
H1438       H  0.73620326  0.14725330  0.21478253     0.40700
H1439       H  0.69166485  0.05396911  0.55502814     0.40300
H1440       H  0.65314934  0.06901121  0.01805194     0.35200
O1441       O  0.64708122  0.06114108  0.80282082    -0.72000
O1442       O  0.64412679  0.48262326  0.69044206    -0.72200
O1443       O  0.64681962  0.47542421  0.80042688    -0.72100
O1444       O  0.64678982  0.06674515  0.69950980    -0.72100
O1445       O  0.71539729  0.05663374  0.69530490    -0.72100
O1446       O  0.71551819  0.47743756  0.80343520    -0.72100
O1447       O  0.71266474  0.47407806  0.69714023    -0.72000
O1448       O  0.71571908  0.06162136  0.79509750    -0.72200
V1449       V  0.64700277  0.02084263  0.74846879     1.35200
V1450       V  0.71323845  0.51693965  0.74785316     1.35200
C1451       C  0.68215189  0.07697252  0.81460416     0.77200
C1452       C  0.67883731  0.46684416  0.67227276     0.77300
C1453       C  0.68212986  0.46292767  0.82208971     0.77200
C1454       C  0.68264250  0.07756168  0.68202698     0.77100
C1455       C  0.72635145  0.18032291  0.49725806    -0.02700
C1456       C  0.71290184  0.33239895  0.00147213    -0.02700
O1457       O  0.78650482  0.02754794  0.78631215    -0.72000
O1458       O  0.79435618  0.43185051  0.70209244    -0.72200
O1459       O  0.79377862  0.44659394  0.80108693    -0.72100
O1460       O  0.78405953  0.01318224  0.68086761    -0.72100
O1461       O  0.85016483  0.02835517  0.68777622    -0.72100
O1462       O  0.86251624  0.43946554  0.79166148    -0.72100
O1463       O  0.86052510  0.44357753  0.68583545    -0.72000
O1464       O  0.85478608  0.02340039  0.79718080    -0.72200
V1465       V  0.79094103  0.98030824  0.74244218     1.35200
V1466       V  0.85651600  0.48400103  0.74053131     1.35200
C1467       C  0.81856299  0.03807641  0.81192729     0.77200
C1468       C  0.82773393  0.42290958  0.67682679     0.77300
C1469       C  0.82848351  0.42886265  0.81428639     0.77200
C1470       C  0.81443840  0.03318379  0.66337926     0.77100
C1471       C  0.78933130  0.16786285  0.99150359    -0.02700
C1472       C  0.77585564  0.32113591  0.99671737    -0.02700
O1473       O  0.53649816  0.21312913  0.82205867    -0.72000
O1474       O  0.97671544  0.20921759  0.69321881    -0.72200
O1475       O  0.95554243  0.21146073  0.79384617    -0.72100
O1476       O  0.55928136  0.21372185  0.72252712    -0.72100
O1477       O  0.55687815  0.14710088  0.70784234    -0.72100
O1478       O  0.96887958  0.14601486  0.81319493    -0.72100
O1479       O  0.96992296  0.14273591  0.70604927    -0.72000
O1480       O  0.55347351  0.14672806  0.81451213    -0.72200
V1481       V  0.50710195  0.21075551  0.75768805     1.35200
V1482       V  0.51218758  0.14606450  0.75999700     1.35200
C1483       C  0.55634670  0.18055149  0.83928112     0.77200
C1484       C  0.96024868  0.17552751  0.67967798     0.77300
C1485       C  0.94878235  0.18068746  0.82243848     0.77200
C1486       C  0.57387555  0.18208285  0.69892953     0.77100
C1487       C  0.67998640  0.22507136  0.00916228    -0.02700
C1488       C  0.83175703  0.21124215  0.00209021    -0.02700
O1489       O  0.53467874  0.35857446  0.79901221    -0.72000
O1490       O  0.94898652  0.34997706  0.69369945    -0.72200
O1491       O  0.94777378  0.35401844  0.79861313    -0.72100
O1492       O  0.53463126  0.35510187  0.69355676    -0.72100
O1493       O  0.53172499  0.28742639  0.68946945    -0.72100
O1494       O  0.96497579  0.28826090  0.81152472    -0.72100
O1495       O  0.94817944  0.28348320  0.71071204    -0.72000
O1496       O  0.54854860  0.29185292  0.78975033    -0.72200
V1497       V  0.49162486  0.35377098  0.74635318     1.35200
V1498       V  0.49822473  0.28897843  0.75035540     1.35200
C1499       C  0.55730928  0.32585447  0.81068649     0.77200
C1500       C  0.93368806  0.31452536  0.68503242     0.77300
C1501       C  0.94220802  0.32018516  0.82336805     0.77200
C1502       C  0.54675300  0.32077551  0.67258978     0.77100
C1503       C  0.67221860  0.28761164  0.99738748    -0.02700
C1504       C  0.82164111  0.27404635  0.00159684    -0.02700
C1505       C  0.87290999  0.29657110  0.85558171    -0.26600
C1506       C  0.91046284  0.31651539  0.86532039    -0.14600
C1507       C  0.92115045  0.32328047  0.91669445     0.36000
C1508       C  0.89574038  0.30739597  0.95635587    -0.26000
C1509       C  0.85425194  0.28888039  0.95125186    -0.15200
C1510       C  0.84468102  0.28510006  0.89578475     0.37100
N1511       N  0.80720182  0.26665786  0.87822245    -0.89500
H1512       H  0.86496246  0.28988601  0.81552856     0.18200
H1513       H  0.91455558  0.30790669  0.99030566     0.18200
N1514       N  0.95850953  0.34532588  0.93113034    -0.88500
H1515       H  0.79553855  0.27962366  0.84326952     0.35600
H1516       H  0.78631837  0.26856810  0.90903279     0.40700
H1517       H  0.97491149  0.35649313  0.89895408     0.40300
H1518       H  0.97911334  0.32447109  0.95156691     0.35200
C1519       C  0.87325932  0.32241088  0.55926504    -0.26600
C1520       C  0.84907600  0.28580958  0.55501620    -0.14600
C1521       C  0.84466292  0.26815085  0.60600720     0.36000
C1522       C  0.87217901  0.27740046  0.64794329    -0.26000
C1523       C  0.90239609  0.30793291  0.64339928    -0.15200
C1524       C  0.90214325  0.33165404  0.59833090     0.37100
N1525       N  0.92988687  0.36619326  0.59243193    -0.89500
H1526       H  0.87070709  0.34568352  0.53166571     0.18200
H1527       H  0.86763133  0.26309965  0.68559474     0.18200
N1528       N  0.80704936  0.24755014  0.61908062    -0.88500
H1529       H  0.92468691  0.38170575  0.55687746     0.35600
H1530       H  0.96123420  0.35358390  0.59118165     0.40700
H1531       H  0.79365353  0.23324759  0.58716323     0.40300
H1532       H  0.80553609  0.23407596  0.65621542     0.35200
C1533       C  0.65567348  0.30132012  0.89208353    -0.26600
C1534       C  0.64034537  0.29529227  0.94447375    -0.14600
C1535       C  0.59362775  0.29156666  0.94078912     0.36000
C1536       C  0.56922450  0.30936583  0.89994666    -0.26000
C1537       C  0.58704537  0.32350035  0.85491860    -0.15200
C1538       C  0.63101879  0.31711049  0.84946011     0.37100
N1539       N  0.65023198  0.32275931  0.79948470    -0.89500
H1540       H  0.68377986  0.28545961  0.87903609     0.18200
H1541       H  0.53494805  0.30638317  0.90078780     0.18200
N1542       N  0.56860396  0.26754514  0.97499900    -0.88500
H1543       H  0.68247838  0.31287457  0.79941519     0.35600
H1544       H  0.64878832  0.35483744  0.79083647     0.40700
H1545       H  0.55251958  0.24431374  0.45617944     0.40300
H1546       H  0.54342490  0.28555159  0.99111530     0.35200
C1547       C  0.56746521  0.33512096  0.58215967    -0.26600
C1548       C  0.57806909  0.31860977  0.62994426    -0.14600
C1549       C  0.61886365  0.30073395  0.63685992     0.36000
C1550       C  0.64715933  0.29754596  0.59390478    -0.26000
C1551       C  0.63613438  0.30523834  0.54202952    -0.15200
C1552       C  0.59569075  0.33205859  0.53963489     0.37100
N1553       N  0.58163629  0.35940096  0.49774232    -0.89500
H1554       H  0.53700110  0.35232438  0.57788637     0.18200
H1555       H  0.67918812  0.28784058  0.60005459     0.18200
N1556       N  0.63209510  0.28768530  0.68811735    -0.88500
H1557       H  0.55070829  0.35258790  0.48632013     0.35600
H1558       H  0.57688355  0.38976183  0.01141647     0.40700
H1559       H  0.62838224  0.31411370  0.71135073     0.40300
H1560       H  0.66460555  0.27906550  0.68899148     0.35200
C1561       C  0.85650215  0.18400247  0.60248985    -0.26600
C1562       C  0.86722725  0.19058542  0.54910220    -0.14600
C1563       C  0.91081654  0.16875933  0.54420989     0.36000
C1564       C  0.94103464  0.16780613  0.58562728    -0.26000
C1565       C  0.92874019  0.17571934  0.63608878    -0.15200
C1566       C  0.88514656  0.17868211  0.64490354     0.37100
N1567       N  0.86965324  0.17360712  0.69675181    -0.89500
H1568       H  0.82468316  0.17801743  0.61234079     0.18200
H1569       H  0.97362726  0.15651886  0.57866946     0.18200
N1570       N  0.92608902  0.14540489  0.49960031    -0.88500
H1571       H  0.83628997  0.17591567  0.69801228     0.35600
H1572       H  0.88085986  0.19862122  0.71763783     0.40700
H1573       H  0.93611769  0.11525212  0.01158156     0.40300
H1574       H  0.95570257  0.15610076  0.48820080     0.35200
C1575       C  0.93945175  0.20703511  0.91187191    -0.26600
C1576       C  0.92203735  0.18831388  0.86837618    -0.14600
C1577       C  0.87801132  0.18956577  0.86497850     0.36000
C1578       C  0.85404064  0.19751486  0.90945983    -0.26000
C1579       C  0.86856737  0.20637549  0.95735347    -0.15200
C1580       C  0.91380164  0.21833715  0.95538937     0.37100
N1581       N  0.93655570  0.23881998  0.99634003    -0.89500
H1582       H  0.97323549  0.21324860  0.91222944     0.18200
H1583       H  0.82168543  0.20363445  0.90800256     0.18200
N1584       N  0.85674403  0.18754948  0.81625685    -0.88500
H1585       H  0.96482030  0.22231319  0.00696118     0.35600
H1586       H  0.91827695  0.24576036  0.52915139     0.40700
H1587       H  0.86897136  0.16093071  0.79710186     0.40300
H1588       H  0.86396798  0.21449635  0.79547967     0.35200
C1589       C  0.64618196  0.21585064  0.91893139    -0.26600
C1590       C  0.64144693  0.20589196  0.97038741    -0.14600
C1591       C  0.60548652  0.17706380  0.97608244     0.36000
C1592       C  0.57799366  0.16851489  0.93313024    -0.26000
C1593       C  0.58567397  0.18426619  0.88338804    -0.15200
C1594       C  0.62160219  0.20676532  0.87618885     0.37100
N1595       N  0.63510285  0.22004289  0.82554227    -0.89500
H1596       H  0.67272215  0.23191498  0.91373544     0.18200
H1597       H  0.55098362  0.14889855  0.93884900     0.18200
N1598       N  0.59857692  0.15151877  0.02123395    -0.88500
H1599       H  0.61146605  0.24009541  0.80926568     0.35600
H1600       H  0.63843531  0.19373094  0.80171787     0.40700
H1601       H  0.59935386  0.11985762  0.50974327     0.40300
H1602       H  0.56681549  0.15661624  0.03235901     0.35200
C1603       C  0.61081641  0.22052975  0.57045637    -0.26600
C1604       C  0.65593071  0.21561135  0.56674195    -0.14600
C1605       C  0.67248591  0.21060265  0.61962049     0.36000
C1606       C  0.64673824  0.19593550  0.66158805    -0.26000
C1607       C  0.60303741  0.18995731  0.65511461    -0.15200
C1608       C  0.58471897  0.20775817  0.61078418     0.37100
N1609       N  0.53926102  0.21608194  0.60739118    -0.89500
H1610       H  0.59396909  0.23406447  0.54083104     0.18200
H1611       H  0.66051996  0.19196898  0.70007316     0.18200
N1612       N  0.71106265  0.22902902  0.63452260    -0.88500
H1613       H  0.52768789  0.20219647  0.57403315     0.35600
H1614       H  0.53347817  0.24831953  0.60230643     0.40700
H1615       H  0.72884586  0.23016757  0.60112864     0.40300
H1616       H  0.72751865  0.21188312  0.66341313     0.35200
C1617       C  0.80306729  0.35656966  0.64040118    -0.26600
C1618       C  0.82429425  0.39386673  0.63310897    -0.14600
C1619       C  0.82563982  0.41070762  0.58308891     0.36000
C1620       C  0.80203678  0.39239027  0.54355911    -0.26000
C1621       C  0.78759821  0.35051932  0.54617087    -0.15200
C1622       C  0.78508915  0.33550693  0.59784429     0.37100
N1623       N  0.75516213  0.30453759  0.60822405    -0.89500
H1624       H  0.79738540  0.34552678  0.67962994     0.18200
H1625       H  0.79753294  0.41192997  0.51023302     0.18200
N1626       N  0.85188280  0.44565243  0.57182641    -0.88500
H1627       H  0.75327229  0.29389447  0.64674052     0.35600
H1628       H  0.74752326  0.28670736  0.57624533     0.40700
H1629       H  0.84200630  0.47140602  0.59408662     0.40300
H1630       H  0.84916446  0.45471832  0.53276098     0.35200
C1631       C  0.79232881  0.36957071  0.84969156    -0.26600
C1632       C  0.82552119  0.39642370  0.85433866    -0.14600
C1633       C  0.84492052  0.39912476  0.90210117     0.36000
C1634       C  0.83055732  0.37478727  0.94349415    -0.26000
C1635       C  0.79276724  0.34951629  0.94459746    -0.15200
C1636       C  0.77557856  0.34837598  0.89259169     0.37100
N1637       N  0.74126197  0.32423199  0.87979114    -0.89500
H1638       H  0.77659225  0.36715085  0.81222778     0.18200
H1639       H  0.85113761  0.37915610  0.97456768     0.18200
N1640       N  0.87893960  0.42700273  0.91055197    -0.88500
H1641       H  0.71727325  0.34482883  0.86531769     0.35600
H1642       H  0.73289279  0.30903772  0.91367057     0.40700
H1643       H  0.86760582  0.45763966  0.90228823     0.40300
H1644       H  0.90370603  0.41914000  0.88470937     0.35200
C1645       C  0.82400121  0.06182290  0.90674370    -0.26600
C1646       C  0.81291424  0.06937637  0.85470397    -0.14600
C1647       C  0.79969977  0.10989863  0.84219396     0.36000
C1648       C  0.79477745  0.13998625  0.88203014    -0.26000
C1649       C  0.80215842  0.13468627  0.93777760    -0.15200
C1650       C  0.83114573  0.09726726  0.93898162     0.37100
N1651       N  0.87568779  0.10507584  0.94086891    -0.89500
H1652       H  0.84026196  0.03203134  0.91598082     0.18200
H1653       H  0.78879411  0.16870157  0.86358660     0.18200
N1654       N  0.79213570  0.12107359  0.78850030    -0.88500
H1655       H  0.88535138  0.11399390  0.90373914     0.35600
H1656       H  0.89336613  0.07702051  0.94830803     0.40700
H1657       H  0.82042057  0.11510943  0.76778344     0.40300
H1658       H  0.78447422  0.15306873  0.78387335     0.35200
C1659       C  0.77655811  0.08662216  0.53109600    -0.26600
C1660       C  0.80054276  0.12463572  0.53129357    -0.14600
C1661       C  0.83786792  0.11208436  0.56175047     0.36000
C1662       C  0.83137658  0.09692181  0.61247870    -0.26000
C1663       C  0.80724614  0.06202863  0.61657830    -0.15200
C1664       C  0.77981059  0.05535874  0.57279619     0.37100
N1665       N  0.75747291  0.01743882  0.56803515    -0.89500
H1666       H  0.75575004  0.08145672  0.49856353     0.18200
H1667       H  0.85649560  0.09996493  0.64097683     0.18200
N1668       N  0.87122013  0.08674414  0.53814999    -0.88500
H1669       H  0.73869373  0.01363810  0.60108926     0.35600
H1670       H  0.77940477  0.99213625  0.56616716     0.40700
H1671       H  0.86025746  0.05693954  0.53016965     0.40300
H1672       H  0.89671634  0.08172681  0.56427432     0.35200
C1673       C  0.66199279  0.38076666  0.93003595    -0.26600
C1674       C  0.70196977  0.37235965  0.95677743    -0.14600
C1675       C  0.72553915  0.41076709  0.94903861     0.36000
C1676       C  0.72417174  0.43125494  0.89919261    -0.26000
C1677       C  0.68656891  0.43314494  0.86887830    -0.15200
C1678       C  0.65325637  0.41065922  0.88931745     0.37100
N1679       N  0.61023182  0.41977293  0.87158882    -0.89500
H1680       H  0.63484209  0.36701876  0.94280067     0.18200
H1681       H  0.74771128  0.45431013  0.89115016     0.18200
N1682       N  0.72670436  0.44174317  0.98926327    -0.88500
H1683       H  0.58827783  0.40347757  0.89357522     0.35600
H1684       H  0.60787990  0.40961606  0.83324585     0.40700
H1685       H  0.73352624  0.42887207  0.02511879     0.40300
H1686       H  0.75088411  0.46249447  0.98142816     0.35200
C1687       C  0.71768099  0.41202129  0.62209333    -0.26600
C1688       C  0.68211866  0.43878283  0.62505612    -0.14600
C1689       C  0.65205269  0.43309968  0.58468026     0.36000
C1690       C  0.66038656  0.39976929  0.54744213    -0.26000
C1691       C  0.69440384  0.36627572  0.55231832    -0.15200
C1692       C  0.70943922  0.37213652  0.60503190     0.37100
N1693       N  0.69294192  0.34880951  0.64812098    -0.89500
H1694       H  0.73928984  0.41291763  0.65369824     0.18200
H1695       H  0.64160003  0.40406550  0.51384258     0.18200
N1696       N  0.61590261  0.46158112  0.57768471    -0.88500
H1697       H  0.66445739  0.36382754  0.66076454     0.35600
H1698       H  0.71388726  0.34897457  0.67991578     0.40700
H1699       H  0.62702649  0.49190400  0.57430862     0.40300
H1700       H  0.59690973  0.46024904  0.61096598     0.35200
C1701       C  0.70500898  0.14682027  0.84733418    -0.26600
C1702       C  0.68570933  0.10840824  0.85504904    -0.14600
C1703       C  0.67375369  0.09799122  0.90450922     0.36000
C1704       C  0.68404108  0.12401909  0.94435207    -0.26000
C1705       C  0.71158089  0.15724595  0.94357849    -0.15200
C1706       C  0.71669996  0.17173257  0.89075303     0.37100
N1707       N  0.73269995  0.21232386  0.88104665    -0.89500
H1708       H  0.71140906  0.15728910  0.80813719     0.18200
H1709       H  0.65965391  0.12485318  0.97042706     0.18200
N1710       N  0.64843651  0.06256908  0.91568214    -0.88500
H1711       H  0.74373826  0.21664810  0.84306904     0.35600
H1712       H  0.75453513  0.21665097  0.91019223     0.40700
H1713       H  0.66505767  0.03520061  0.90365371     0.40300
H1714       H  0.61954414  0.06602034  0.89536350     0.35200
C1715       C  0.73689425  0.15283404  0.59382393    -0.26600
C1716       C  0.71404175  0.14895459  0.54702937    -0.14600
C1717       C  0.68112340  0.11770241  0.55409686     0.36000
C1718       C  0.66101049  0.11357008  0.60197303    -0.26000
C1719       C  0.68821543  0.11111975  0.64395790    -0.17600
C1720       C  0.72699728  0.13196843  0.64030874     0.37100
N1721       N  0.75419952  0.13669124  0.68431169    -0.89500
H1722       H  0.76286502  0.17269323  0.59399484     0.18200
H1723       H  0.63276408  0.09507335  0.60361758     0.18200
N1724       N  0.68335824  0.07746277  0.52829279    -0.88500
H1725       H  0.76790711  0.10757028  0.69487961     0.35600
H1726       H  0.73520545  0.14805353  0.71491994     0.40700
H1727       H  0.69333876  0.05382430  0.05438766     0.40300
H1728       H  0.65243629  0.06962498  0.51788191     0.35200
O1729       O  0.64724235  0.56034194  0.30322462    -0.72000
O1730       O  0.64387388  0.98255372  0.19025194    -0.72200
O1731       O  0.64649489  0.97467871  0.30019826    -0.72100
O1732       O  0.64720554  0.56651295  0.19990389    -0.72100
O1733       O  0.71573763  0.55580709  0.19537728    -0.72100
O1734       O  0.71517557  0.97660122  0.30348131    -0.72100
O1735       O  0.71230754  0.97341279  0.19698640    -0.72000
O1736       O  0.71583513  0.56076607  0.29524201    -0.72200
V1737       V  0.64699400  0.52037607  0.24855662     1.35200
V1738       V  0.71319073  0.01611511  0.24791977     1.35200
C1739       C  0.68234905  0.57611115  0.31492030     0.77200
C1740       C  0.67847122  0.96687172  0.17170645     0.77300
C1741       C  0.68174150  0.96212942  0.32202092     0.77200
C1742       C  0.68312037  0.57700963  0.18222124     0.77100
C1743       C  0.72638008  0.68042213  0.99747063    -0.02700
C1744       C  0.71251959  0.83203050  0.50209114    -0.02700
O1745       O  0.78623662  0.52696691  0.28529381    -0.72000
O1746       O  0.79415147  0.93046089  0.20214778    -0.72200
O1747       O  0.79301299  0.94589673  0.30077920    -0.72100
O1748       O  0.78408345  0.51183478  0.17979518    -0.72100
O1749       O  0.85005966  0.52727359  0.18744197    -0.72100
O1750       O  0.86170326  0.93823976  0.29135961    -0.72100
O1751       O  0.86021065  0.94244883  0.18563042    -0.72000
O1752       O  0.85437461  0.52229489  0.29694086    -0.72200
V1753       V  0.79058909  0.47932460  0.24183849     1.35200
V1754       V  0.85613185  0.98285721  0.24026398     1.35200
C1755       C  0.81819242  0.53738286  0.31126299     0.77200
C1756       C  0.82753419  0.92158857  0.17681629     0.77300
C1757       C  0.82756202  0.92788015  0.31397323     0.77200
C1758       C  0.81449461  0.53201505  0.16264865     0.77100
C1759       C  0.78936163  0.66777188  0.49119932    -0.02700
C1760       C  0.77559781  0.82097835  0.49743929    -0.02700
O1761       O  0.53649436  0.71243578  0.32215052    -0.72000
O1762       O  0.97734224  0.70883816  0.19305379    -0.72200
O1763       O  0.95575393  0.71091272  0.29351750    -0.72100
O1764       O  0.55981242  0.71303360  0.22284809    -0.72100
O1765       O  0.55668138  0.64661456  0.20722018    -0.72100
O1766       O  0.96946675  0.64568647  0.31357963    -0.72100
O1767       O  0.96961134  0.64256125  0.20641428    -0.72000
O1768       O  0.55402463  0.64620236  0.31392391    -0.72200
V1769       V  0.50744008  0.71022028  0.25765378     1.35200
V1770       V  0.51234991  0.64559834  0.25987026     1.35200
C1771       C  0.55662144  0.67992699  0.33899588     0.77200
C1772       C  0.96028584  0.67536921  0.17989662     0.77300
C1773       C  0.94933409  0.68037160  0.32264223     0.77200
C1774       C  0.57403000  0.68149773  0.19872749     0.77100
C1775       C  0.67979004  0.72482238  0.50902912    -0.02700
C1776       C  0.83182824  0.71123472  0.50190423    -0.02700
O1777       O  0.53480114  0.85782377  0.29874401    -0.72000
O1778       O  0.94879016  0.84989138  0.19382010    -0.72200
O1779       O  0.94812496  0.85374804  0.29879229    -0.72100
O1780       O  0.53458292  0.85488239  0.19329022    -0.72100
O1781       O  0.53264001  0.78711720  0.18965313    -0.72100
O1782       O  0.96406573  0.78760593  0.31042225    -0.72100
O1783       O  0.94865419  0.78312374  0.20940160    -0.72000
O1784       O  0.54772550  0.79086544  0.29019852    -0.72200
V1785       V  0.49169819  0.85336407  0.24623656     1.35200
V1786       V  0.49812890  0.78845633  0.24986025     1.35200
C1787       C  0.55662343  0.82478348  0.31105723     0.77200
C1788       C  0.93376108  0.81440261  0.18461074     0.77300
C1789       C  0.94202608  0.81980698  0.32302918     0.77200
C1790       C  0.54738549  0.82061929  0.17272145     0.77100
C1791       C  0.67170467  0.78730060  0.49767254    -0.02700
C1792       C  0.82163002  0.77405858  0.50177063    -0.02700
C1793       C  0.87302868  0.79595805  0.35569195    -0.26600
C1794       C  0.91035195  0.81631511  0.36514883    -0.14600
C1795       C  0.92076208  0.82393221  0.41645363     0.36000
C1796       C  0.89559052  0.80791169  0.45637194    -0.26000
C1797       C  0.85423140  0.78901686  0.45140205    -0.15200
C1798       C  0.84477157  0.78482349  0.39597473     0.37100
N1799       N  0.80746415  0.76607775  0.37852664    -0.89500
H1800       H  0.86520793  0.78877426  0.31574310     0.18200
H1801       H  0.91441943  0.80863357  0.49034678     0.18200
N1802       N  0.95753126  0.84702379  0.43051905    -0.88500
H1803       H  0.79553782  0.77912692  0.34375568     0.35600
H1804       H  0.78675579  0.76768291  0.40954375     0.40700
H1805       H  0.97384939  0.85791874  0.39812912     0.40300
H1806       H  0.97852560  0.82694117  0.45151040     0.35200
C1807       C  0.87353701  0.82211872  0.05905793    -0.26600
C1808       C  0.84904456  0.78573929  0.05497848    -0.14600
C1809       C  0.84435145  0.76841340  0.10619369     0.36000
C1810       C  0.87162947  0.77798568  0.14823000    -0.26000
C1811       C  0.90234487  0.80796599  0.14325135    -0.15200
C1812       C  0.90284199  0.83095636  0.09774505     0.37100
N1813       N  0.93198992  0.86422361  0.09090718    -0.89500
H1814       H  0.87122726  0.84536006  0.03144159     0.18200
H1815       H  0.86666023  0.76429278  0.18613966     0.18200
N1816       N  0.80660596  0.74807248  0.11932839    -0.88500
H1817       H  0.92752615  0.87908670  0.05481022     0.35600
H1818       H  0.96285182  0.85038241  0.09022230     0.40700
H1819       H  0.79374468  0.73316601  0.08757064     0.40300
H1820       H  0.80521747  0.73456174  0.15647087     0.35200
C1821       C  0.65452105  0.80133639  0.39277577    -0.26600
C1822       C  0.63935362  0.79478765  0.44508200    -0.14600
C1823       C  0.59250008  0.79070384  0.44157511     0.36000
C1824       C  0.56796691  0.80754674  0.40027255    -0.26000
C1825       C  0.58577639  0.82209545  0.35551064    -0.15200
C1826       C  0.62966812  0.81684226  0.35038460     0.37100
N1827       N  0.64906227  0.82391653  0.30100286    -0.89500
H1828       H  0.68265335  0.78598329  0.37921386     0.18200
H1829       H  0.53368526  0.80425114  0.40097314     0.18200
N1830       N  0.56729378  0.76772910  0.47672970    -0.88500
H1831       H  0.66743742  0.79707983  0.29080860     0.35600
H1832       H  0.66926359  0.84891591  0.30396412     0.40700
H1833       H  0.55353375  0.74496206  0.95337106     0.40300
H1834       H  0.54192499  0.78617205  0.49172080     0.35200
C1835       C  0.56808485  0.83525700  0.08230960    -0.26600
C1836       C  0.57885787  0.81883153  0.13010730    -0.14600
C1837       C  0.61986419  0.80139341  0.13692646     0.36000
C1838       C  0.64799561  0.79810467  0.09383666    -0.26000
C1839       C  0.63671510  0.80555884  0.04187557    -0.15200
C1840       C  0.59607297  0.83210777  0.03954876     0.37100
N1841       N  0.58161224  0.85921421  0.99756039    -0.89500
H1842       H  0.53756590  0.85235365  0.07814378     0.18200
H1843       H  0.67989639  0.78816178  0.10007316     0.18200
N1844       N  0.63347032  0.78884885  0.18819612    -0.88500
H1845       H  0.55064995  0.85212589  0.98658352     0.35600
H1846       H  0.57720637  0.88992004  0.51183609     0.40700
H1847       H  0.63007457  0.81560911  0.21095249     0.40300
H1848       H  0.66596238  0.78011936  0.18875402     0.35200
C1849       C  0.85641661  0.68434113  0.10294125    -0.26600
C1850       C  0.86713943  0.69068002  0.04943535    -0.14600
C1851       C  0.91078622  0.66886361  0.04465848     0.36000
C1852       C  0.94093598  0.66790407  0.08608135    -0.26000
C1853       C  0.92867116  0.67584759  0.13647501    -0.15200
C1854       C  0.88510352  0.67924181  0.14535034     0.37100
N1855       N  0.86969621  0.67505007  0.19736135    -0.89500
H1856       H  0.82463758  0.67835698  0.11300333     0.18200
H1857       H  0.97353678  0.65660417  0.07916594     0.18200
N1858       N  0.92632196  0.64554198  0.00013674    -0.88500
H1859       H  0.83634517  0.67763559  0.19876940     0.35600
H1860       H  0.88123971  0.70023069  0.21764778     0.40700
H1861       H  0.93576586  0.61508944  0.51102702     0.40300
H1862       H  0.95593288  0.65627564  0.98880236     0.35200
C1863       C  0.93985359  0.70742132  0.41193877    -0.26600
C1864       C  0.92266514  0.68819679  0.36862486    -0.14600
C1865       C  0.87868777  0.68890783  0.36523303     0.36000
C1866       C  0.85457749  0.69701982  0.40952794    -0.26000
C1867       C  0.86883537  0.70652310  0.45728459    -0.15200
C1868       C  0.91404471  0.71869601  0.45539419     0.37100
N1869       N  0.93663536  0.73923894  0.49641711    -0.89500
H1870       H  0.97357664  0.71389584  0.41228534     0.18200
H1871       H  0.82224651  0.70298062  0.40786456     0.18200
N1872       N  0.85753277  0.68643057  0.31650720    -0.88500
H1873       H  0.96476255  0.72255561  0.50720206     0.35600
H1874       H  0.91833815  0.74550754  0.02914977     0.40700
H1875       H  0.87026205  0.66004647  0.29728330     0.40300
H1876       H  0.86417173  0.71357840  0.29582696     0.35200
C1877       C  0.64634417  0.71554776  0.41849519    -0.26600
C1878       C  0.64139777  0.70565087  0.47001717    -0.14600
C1879       C  0.60532165  0.67691570  0.47567018     0.36000
C1880       C  0.57785619  0.66845061  0.43277756    -0.26000
C1881       C  0.58589432  0.68373902  0.38300663    -0.15200
C1882       C  0.62189226  0.70612783  0.37572868     0.37100
N1883       N  0.63546018  0.71907633  0.32498797    -0.89500
H1884       H  0.67285517  0.73181824  0.41326179     0.18200
H1885       H  0.55070305  0.64901341  0.43850785     0.18200
N1886       N  0.59826833  0.65130937  0.52073573    -0.88500
H1887       H  0.61184282  0.73906714  0.30851862     0.35600
H1888       H  0.63880191  0.69261193  0.30141424     0.40700
H1889       H  0.59982946  0.62003784  0.01038747     0.40300
H1890       H  0.56653291  0.65654893  0.53190883     0.35200
C1891       C  0.61085683  0.72116366  0.07066390    -0.26600
C1892       C  0.65600592  0.71596229  0.06686697    -0.14600
C1893       C  0.67255542  0.71044075  0.11968355     0.36000
C1894       C  0.64681778  0.69547180  0.16143969    -0.26000
C1895       C  0.60313407  0.68955950  0.15488585    -0.15200
C1896       C  0.58479912  0.70786052  0.11081964     0.37100
N1897       N  0.53932703  0.71603987  0.10753020    -0.89500
H1898       H  0.59393440  0.73530752  0.04130050     0.18200
H1899       H  0.66060376  0.69120047  0.19989050     0.18200
N1900       N  0.71108044  0.72874542  0.13491248    -0.88500
H1901       H  0.52779401  0.70243813  0.07395806     0.35600
H1902       H  0.53342804  0.74830493  0.10293589     0.40700
H1903       H  0.72895664  0.72990127  0.10165286     0.40300
H1904       H  0.72742399  0.71138676  0.16374340     0.35200
C1905       C  0.80221365  0.85564761  0.13991526    -0.26600
C1906       C  0.82423674  0.89255045  0.13310342    -0.14600
C1907       C  0.82657398  0.90936066  0.08314919     0.36000
C1908       C  0.80261309  0.89191625  0.04340098    -0.26000
C1909       C  0.78771707  0.85026888  0.04553404    -0.15200
C1910       C  0.78453399  0.83491117  0.09688320     0.37100
N1911       N  0.75378274  0.80450528  0.10625689    -0.89500
H1912       H  0.79586783  0.84463989  0.17899158     0.18200
H1913       H  0.79835710  0.91182731  0.01032865     0.18200
N1914       N  0.85418704  0.94327622  0.07215782    -0.88500
H1915       H  0.75177550  0.79376973  0.14472588     0.35600
H1916       H  0.74830125  0.78556899  0.07453834     0.40700
H1917       H  0.84446627  0.96956315  0.09357326     0.40300
H1918       H  0.85258602  0.95188162  0.03287040     0.35200
C1919       C  0.79130675  0.86872049  0.35011352    -0.26600
C1920       C  0.82445362  0.89569233  0.35433300    -0.14600
C1921       C  0.84392145  0.89878682  0.40198710     0.36000
C1922       C  0.82980151  0.87466069  0.44368820    -0.26000
C1923       C  0.79222427  0.84913996  0.44514260    -0.15200
C1924       C  0.77497221  0.84748877  0.39330853     0.37100
N1925       N  0.74101645  0.82277154  0.38098463    -0.89500
H1926       H  0.77544017  0.86604671  0.31276926     0.18200
H1927       H  0.85041942  0.87933959  0.47467084     0.18200
N1928       N  0.87771503  0.92698923  0.41004600    -0.88500
H1929       H  0.71696244  0.84321606  0.36664756     0.35600
H1930       H  0.73269075  0.80748405  0.41486827     0.40700
H1931       H  0.86612218  0.95750015  0.40153905     0.40300
H1932       H  0.90249252  0.91916078  0.38420500     0.35200
C1933       C  0.82312236  0.56128596  0.40633007    -0.26600
C1934       C  0.81259913  0.56889089  0.35407787    -0.14600
C1935       C  0.80007003  0.60962140  0.34154053     0.36000
C1936       C  0.79512689  0.63977349  0.38144055    -0.26000
C1937       C  0.80207029  0.63442360  0.43737164    -0.15200
C1938       C  0.83059284  0.59665944  0.43867818     0.37100
N1939       N  0.87526169  0.60406028  0.44055735    -0.89500
H1940       H  0.83884156  0.53129053  0.41582198     0.18200
H1941       H  0.78918902  0.66852888  0.36296741     0.18200
N1942       N  0.79303081  0.62090401  0.28779619    -0.88500
H1943       H  0.88496287  0.61316294  0.40351394     0.35600
H1944       H  0.89272409  0.57582688  0.44768437     0.40700
H1945       H  0.82142632  0.61469719  0.26738633     0.40300
H1946       H  0.78564065  0.65295030  0.28314895     0.35200
C1947       C  0.77685540  0.58630813  0.03063586    -0.26600
C1948       C  0.80046795  0.62459658  0.03144141    -0.14600
C1949       C  0.83752766  0.61237269  0.06243017     0.36000
C1950       C  0.83074925  0.59669623  0.11286494    -0.26000
C1951       C  0.80739767  0.56117335  0.11602763    -0.15200
C1952       C  0.78049625  0.55451291  0.07174361     0.37100
N1953       N  0.75932389  0.51603451  0.06577552    -0.89500
H1954       H  0.75631469  0.58115283  0.99783449     0.18200
H1955       H  0.85533291  0.60018049  0.14195007     0.18200
N1956       N  0.87143323  0.58771143  0.03894200    -0.88500
H1957       H  0.74030425  0.51128291  0.09841059     0.35600
H1958       H  0.78210961  0.49142305  0.06393952     0.40700
H1959       H  0.86100805  0.55781430  0.03036749     0.40300
H1960       H  0.89669892  0.58280708  0.06541883     0.35200
C1961       C  0.66159966  0.88031606  0.43046845    -0.26600
C1962       C  0.70153697  0.87195036  0.45729911    -0.14600
C1963       C  0.72495643  0.91043221  0.44956311     0.36000
C1964       C  0.72357851  0.93091792  0.39966313    -0.26000
C1965       C  0.68614510  0.93245358  0.36898059    -0.15200
C1966       C  0.65293309  0.90977099  0.38921640     0.37100
N1967       N  0.61011584  0.91791033  0.37023995    -0.89500
H1968       H  0.63454104  0.86656823  0.44318077     0.18200
H1969       H  0.74697422  0.95412806  0.39171522     0.18200
N1970       N  0.72606925  0.94139027  0.48987890    -0.88500
H1971       H  0.58806661  0.90168138  0.39215850     0.35600
H1972       H  0.60870983  0.90697317  0.33212154     0.40700
H1973       H  0.73270400  0.92868276  0.52595447     0.40300
H1974       H  0.75009712  0.96232117  0.48207051     0.35200
C1975       C  0.71791025  0.91409968  0.11908830    -0.26600
C1976       C  0.68164467  0.93982266  0.12343206    -0.14600
C1977       C  0.65096467  0.93307754  0.08378820     0.36000
C1978       C  0.65997049  0.89975332  0.04660868    -0.26000
C1979       C  0.69464050  0.86689845  0.05131509    -0.15200
C1980       C  0.71017183  0.87372589  0.10343551     0.37100
N1981       N  0.69393895  0.85084159  0.14709053    -0.89500
H1982       H  0.74102012  0.91625666  0.14866105     0.18200
H1983       H  0.64107866  0.90368139  0.01315388     0.18200
N1984       N  0.61372672  0.96034125  0.07656082    -0.88500
H1985       H  0.66511587  0.86544569  0.15926187     0.35600
H1986       H  0.71485493  0.85196805  0.17882205     0.40700
H1987       H  0.61343926  0.98521610  0.10262067     0.40300
H1988       H  0.58706062  0.94283239  0.08461315     0.35200
C1989       C  0.70548091  0.64594409  0.34727894    -0.26600
C1990       C  0.68600471  0.60765691  0.35520676    -0.14600
C1991       C  0.67360614  0.59768277  0.40463170     0.36000
C1992       C  0.68398429  0.62381922  0.44433742    -0.26000
C1993       C  0.71161089  0.65696128  0.44344987    -0.15200
C1994       C  0.71688611  0.67116430  0.39054652     0.37100
N1995       N  0.73275100  0.71175493  0.38060542    -0.89500
H1996       H  0.71211953  0.65614011  0.30803033     0.18200
H1997       H  0.65956248  0.62493327  0.47030178     0.18200
N1998       N  0.64764412  0.56273558  0.41584427    -0.88500
H1999       H  0.74345000  0.71604557  0.34247124     0.35600
H2000       H  0.75497580  0.71588496  0.40931710     0.40700
H2001       H  0.66389981  0.53506743  0.40416001     0.40300
H2002       H  0.61890621  0.56653855  0.39526064     0.35200
C2003       C  0.73705551  0.65265433  0.09392311    -0.26600
C2004       C  0.71412512  0.64891436  0.04716167    -0.14600
C2005       C  0.68151127  0.61736400  0.05408649     0.36000
C2006       C  0.66154664  0.61282650  0.10200652    -0.26000
C2007       C  0.68878411  0.61045710  0.14397933    -0.17600
C2008       C  0.72748895  0.63141838  0.14025392     0.37100
N2009       N  0.75498525  0.63582867  0.18403605    -0.89500
H2010       H  0.76297257  0.67257849  0.09412170     0.18200
H2011       H  0.63342948  0.59414666  0.10359991     0.18200
N2012       N  0.68405521  0.57727224  0.02798251    -0.88500
H2013       H  0.76848035  0.60658419  0.19445853     0.35600
H2014       H  0.73619959  0.64725166  0.21478743     0.40700
H2015       H  0.69166085  0.55396962  0.55502455     0.40300
H2016       H  0.65314888  0.56901250  0.01805429     0.35200
O2017       O  0.64708044  0.56113949  0.80282612    -0.72000
O2018       O  0.64412385  0.98262383  0.69043801    -0.72200
O2019       O  0.64681695  0.97542581  0.80042406    -0.72100
O2020       O  0.64678914  0.56674520  0.69951498    -0.72100
O2021       O  0.71539617  0.55663236  0.69530574    -0.72100
O2022       O  0.71551620  0.97743214  0.80342651    -0.72100
O2023       O  0.71266235  0.97408043  0.69713092    -0.72000
O2024       O  0.71571764  0.56162679  0.79509839    -0.72200
V2025       V  0.64700369  0.52084185  0.74847315     1.35200
V2026       V  0.71323777  0.01693784  0.74784826     1.35200
C2027       C  0.68214975  0.57697463  0.81460745     0.77200
C2028       C  0.67883403  0.96684670  0.67226535     0.77300
C2029       C  0.68212726  0.96292610  0.82208453     0.77200
C2030       C  0.68264124  0.57756091  0.68202953     0.77100
C2031       C  0.72634799  0.68032426  0.49726018    -0.02700
C2032       C  0.71290032  0.83239961  0.00147266    -0.02700
O2033       O  0.78650136  0.52754553  0.78631090    -0.72000
O2034       O  0.79435421  0.93185161  0.70209622    -0.72200
O2035       O  0.79377795  0.94659684  0.80109074    -0.72100
O2036       O  0.78405666  0.51318078  0.68086582    -0.72100
O2037       O  0.85016099  0.52835703  0.68777434    -0.72100
O2038       O  0.86251525  0.93946450  0.79166473    -0.72100
O2039       O  0.86052398  0.94357566  0.68583903    -0.72000
O2040       O  0.85478281  0.52340153  0.79717829    -0.72200
V2041       V  0.79094014  0.48030631  0.74243948     1.35200
V2042       V  0.85651726  0.98399964  0.74053415     1.35200
C2043       C  0.81855922  0.53807586  0.81192544     0.77200
C2044       C  0.82773173  0.92290924  0.67683048     0.77300
C2045       C  0.82848193  0.92886360  0.81428980     0.77200
C2046       C  0.81443405  0.53318469  0.66337837     0.77100
C2047       C  0.78932865  0.66786271  0.99150430    -0.02700
C2048       C  0.77585394  0.82113566  0.99671876    -0.02700
O2049       O  0.53649541  0.71312719  0.82206244    -0.72000
O2050       O  0.97671590  0.70922230  0.69321644    -0.72200
O2051       O  0.95554362  0.71146567  0.79384519    -0.72100
O2052       O  0.55928087  0.71372036  0.72253229    -0.72100
O2053       O  0.55688038  0.64709950  0.70784557    -0.72100
O2054       O  0.96887672  0.64601882  0.81319142    -0.72100
O2055       O  0.96992085  0.64274083  0.70604589    -0.72000
O2056       O  0.55347661  0.64672738  0.81451514    -0.72200
V2057       V  0.50710090  0.71075142  0.75769086     1.35200
V2058       V  0.51219031  0.64606076  0.76000060     1.35200
C2059       C  0.55634638  0.68055092  0.83928479     0.77200
C2060       C  0.96024830  0.67553291  0.67967483     0.77300
C2061       C  0.94878150  0.68069216  0.82243638     0.77200
C2062       C  0.57387641  0.68208235  0.69893400     0.77100
C2063       C  0.67998445  0.72507201  0.00916732    -0.02700
C2064       C  0.83175546  0.71124145  0.00209002    -0.02700
O2065       O  0.53467765  0.85857232  0.79901589    -0.72000
O2066       O  0.94898745  0.84997928  0.69369348    -0.72200
O2067       O  0.94777127  0.85402037  0.79860729    -0.72100
O2068       O  0.53462880  0.85510014  0.69356033    -0.72100
O2069       O  0.53172771  0.78742414  0.68947557    -0.72100
O2070       O  0.96497566  0.78826396  0.81152226    -0.72100
O2071       O  0.94817644  0.78348630  0.71070986    -0.72000
O2072       O  0.54854777  0.79185044  0.78975737    -0.72200
V2073       V  0.49162362  0.85376729  0.74635777     1.35200
V2074       V  0.49822568  0.78897452  0.75035994     1.35200
C2075       C  0.55730765  0.82585260  0.81069238     0.77200
C2076       C  0.93368674  0.81452832  0.68502843     0.77300
C2077       C  0.94220616  0.82018755  0.82336394     0.77200
C2078       C  0.54675301  0.82077409  0.67259463     0.77100
C2079       C  0.67221732  0.78761218  0.99739159    -0.02700
C2080       C  0.82163927  0.77404573  0.00159547    -0.02700
C2081       C  0.87290758  0.79657275  0.85557862    -0.26600
C2082       C  0.91046048  0.81651739  0.86531681    -0.14600
C2083       C  0.92114812  0.82328099  0.91669152     0.36000
C2084       C  0.89573837  0.80739553  0.95635280    -0.26000
C2085       C  0.85424989  0.78888009  0.95124938    -0.15200
C2086       C  0.84467924  0.78510023  0.89578189     0.37100
N2087       N  0.80720092  0.76665675  0.87821952    -0.89500
H2088       H  0.86495959  0.78988803  0.81552547     0.18200
H2089       H  0.91455358  0.80790562  0.99030267     0.18200
N2090       N  0.95850747  0.84532574  0.93112776    -0.88500
H2091       H  0.79553673  0.77962410  0.84326726     0.35600
H2092       H  0.78631811  0.76856690  0.90902957     0.40700
H2093       H  0.97490850  0.85649457  0.89895294     0.40300
H2094       H  0.97911185  0.82446862  0.95156189     0.35200
C2095       C  0.87325635  0.82241358  0.55926181    -0.26600
C2096       C  0.84907371  0.78581201  0.55501352    -0.14600
C2097       C  0.84466019  0.76815451  0.60600467     0.36000
C2098       C  0.87217601  0.77740474  0.64794106    -0.26000
C2099       C  0.90239378  0.80793654  0.64339602    -0.15200
C2100       C  0.90213998  0.83165782  0.59832742     0.37100
N2101       N  0.92988173  0.86619852  0.59242830    -0.89500
H2102       H  0.87070420  0.84568511  0.53166167     0.18200
H2103       H  0.86762783  0.76310497  0.68559299     0.18200
N2104       N  0.80704625  0.74755439  0.61907759    -0.88500
H2105       H  0.92468023  0.88171122  0.55687375     0.35600
H2106       H  0.96122953  0.85359122  0.59117739     0.40700
H2107       H  0.79365154  0.73325012  0.58715992     0.40300
H2108       H  0.80553207  0.73408144  0.65621234     0.35200
C2109       C  0.65567112  0.80131941  0.89208901    -0.26600
C2110       C  0.64034335  0.79529261  0.94447926    -0.14600
C2111       C  0.59362567  0.79156752  0.94079573     0.36000
C2112       C  0.56922236  0.80936681  0.89995348    -0.26000
C2113       C  0.58704316  0.82349991  0.85492470    -0.15200
C2114       C  0.63101613  0.81710867  0.84946560     0.37100
N2115       N  0.65022847  0.82275481  0.79948942    -0.89500
H2116       H  0.68377748  0.78545906  0.87904195     0.18200
H2117       H  0.53494601  0.80638449  0.90079496     0.18200
N2118       N  0.56860191  0.76754653  0.97500631    -0.88500
H2119       H  0.68247450  0.81286934  0.79941941     0.35600
H2120       H  0.64878527  0.85483280  0.79083942     0.40700
H2121       H  0.55251906  0.74431462  0.45617181     0.40300
H2122       H  0.54342398  0.78555327  0.99112359     0.35200
C2123       C  0.56746242  0.83511814  0.58216320    -0.26600
C2124       C  0.57806852  0.81860964  0.62994847    -0.14600
C2125       C  0.61886436  0.80073701  0.63686368     0.36000
C2126       C  0.64715894  0.79754875  0.59390752    -0.26000
C2127       C  0.63613246  0.80523888  0.54203191    -0.15200
C2128       C  0.59568723  0.83205642  0.53963762     0.37100
N2129       N  0.58163123  0.85939836  0.49774543    -0.89500
H2130       H  0.53699712  0.85231924  0.57788991     0.18200
H2131       H  0.67918777  0.78784439  0.60005729     0.18200
N2132       N  0.63209818  0.78769140  0.68812129    -0.88500
H2133       H  0.55070321  0.85258402  0.48632435     0.35600
H2134       H  0.57688432  0.88976364  0.01142237     0.40700
H2135       H  0.62838620  0.81412179  0.71135179     0.40300
H2136       H  0.66460851  0.77907144  0.68899429     0.35200
C2137       C  0.85650109  0.68400742  0.60248951    -0.26600
C2138       C  0.86722502  0.69058815  0.54910082    -0.14600
C2139       C  0.91081427  0.66876215  0.54420830     0.36000
C2140       C  0.94103332  0.66781062  0.58562465    -0.26000
C2141       C  0.92873982  0.67572595  0.63608595    -0.15200
C2142       C  0.88514660  0.67868898  0.64490222     0.37100
N2143       N  0.86965497  0.67361613  0.69675167    -0.89500
H2144       H  0.82468225  0.67802274  0.61234249     0.18200
H2145       H  0.97362574  0.65652282  0.57866657     0.18200
N2146       N  0.92608573  0.64540616  0.49959943    -0.88500
H2147       H  0.83629187  0.67592615  0.69801405     0.35600
H2148       H  0.88086397  0.69862981  0.71763655     0.40700
H2149       H  0.93611356  0.61524938  0.01157550     0.40300
H2150       H  0.95569946  0.65610116  0.48819864     0.35200
C2151       C  0.93944997  0.70703826  0.91187097    -0.26600
C2152       C  0.92203610  0.68831805  0.86837429    -0.14600
C2153       C  0.87801014  0.68956686  0.86497747     0.36000
C2154       C  0.85403938  0.69751434  0.90945939    -0.26000
C2155       C  0.86856572  0.70637532  0.95735311    -0.15200
C2156       C  0.91379991  0.71833772  0.95538940     0.37100
N2157       N  0.93655382  0.73881962  0.99634098    -0.89500
H2158       H  0.97323360  0.71325225  0.91222879     0.18200
H2159       H  0.82168437  0.70363371  0.90800224     0.18200
N2160       N  0.85674288  0.68754978  0.81625582    -0.88500
H2161       H  0.96481825  0.72231189  0.00696153     0.35600
H2162       H  0.91827583  0.74576185  0.52914695     0.40700
H2163       H  0.86897208  0.66093198  0.79710006     0.40300
H2164       H  0.86396475  0.71449735  0.79547896     0.35200
C2165       C  0.64618001  0.71585109  0.91893646    -0.26600
C2166       C  0.64144414  0.70589341  0.97039281    -0.14600
C2167       C  0.60548275  0.67706627  0.97608772     0.36000
C2168       C  0.57799039  0.66851748  0.93313505    -0.26000
C2169       C  0.58567217  0.68426735  0.88339256    -0.15200
C2170       C  0.62160085  0.70676558  0.87619352     0.37100
N2171       N  0.63510308  0.72004137  0.82554676    -0.89500
H2172       H  0.67272069  0.73191443  0.91374035     0.18200
H2173       H  0.55097996  0.64890162  0.93885348     0.18200
N2174       N  0.59857260  0.65152087  0.02123880    -0.88500
H2175       H  0.61146750  0.74009370  0.80926822     0.35600
H2176       H  0.63843547  0.69372831  0.80172352     0.40700
H2177       H  0.59935143  0.61986037  0.50975505     0.40300
H2178       H  0.56681089  0.65661811  0.03236285     0.35200
C2179       C  0.61081369  0.72053379  0.57046149    -0.26600
C2180       C  0.65592794  0.71561354  0.56674535    -0.14600
C2181       C  0.67248454  0.71060460  0.61962290     0.36000
C2182       C  0.64673816  0.69593721  0.66159146    -0.26000
C2183       C  0.60303719  0.68995911  0.65511903    -0.15200
C2184       C  0.58471733  0.70776163  0.61079001     0.37100
N2185       N  0.53925916  0.71608494  0.60739842    -0.89500
H2186       H  0.59396560  0.73407045  0.54083727     0.18200
H2187       H  0.66052088  0.69197030  0.70007610     0.18200
N2188       N  0.71106168  0.72903099  0.63452281    -0.88500
H2189       H  0.52768527  0.70219904  0.57404073     0.35600
H2190       H  0.53347532  0.74832213  0.60231295     0.40700
H2191       H  0.72884423  0.73016788  0.60112769     0.40300
H2192       H  0.72751819  0.71188536  0.66341281     0.35200
C2193       C  0.80306348  0.85657006  0.64040421    -0.26600
C2194       C  0.82429119  0.89386667  0.63311243    -0.14600
C2195       C  0.82563718  0.91070774  0.58309229     0.36000
C2196       C  0.80203315  0.89239151  0.54356236    -0.26000
C2197       C  0.78759501  0.85052041  0.54617295    -0.15200
C2198       C  0.78508565  0.83550769  0.59784668     0.37100
N2199       N  0.75515649  0.80454052  0.60822669    -0.89500
H2200       H  0.79738054  0.84552733  0.67963287     0.18200
H2201       H  0.79752881  0.91193182  0.51023682     0.18200
N2202       N  0.85188238  0.94565085  0.57182945    -0.88500
H2203       H  0.75326792  0.79389662  0.64674262     0.35600
H2204       H  0.74752046  0.78670893  0.57624759     0.40700
H2205       H  0.84200830  0.97140506  0.59408993     0.40300
H2206       H  0.84916443  0.95471686  0.53276394     0.35200
C2207       C  0.79232617  0.86957148  0.84969377    -0.26600
C2208       C  0.82551832  0.89642487  0.85434180    -0.14600
C2209       C  0.84491752  0.89912593  0.90210439     0.36000
C2210       C  0.83055524  0.87478733  0.94349647    -0.26000
C2211       C  0.79276545  0.84951607  0.94459930    -0.15200
C2212       C  0.77557668  0.84837552  0.89259364     0.37100
N2213       N  0.74126066  0.82423068  0.87979273    -0.89500
H2214       H  0.77658991  0.86715160  0.81222981     0.18200
H2215       H  0.85113532  0.87915696  0.97456986     0.18200
N2216       N  0.87893494  0.92700565  0.91055646    -0.88500
H2217       H  0.71727155  0.84482577  0.86531925     0.35600
H2218       H  0.73289207  0.80903585  0.91367321     0.40700
H2219       H  0.86759943  0.95764226  0.90229283     0.40300
H2220       H  0.90370223  0.91914460  0.88471474     0.35200
C2221       C  0.82399496  0.56182197  0.90674244    -0.26600
C2222       C  0.81290986  0.56937601  0.85470237    -0.14600
C2223       C  0.79969784  0.60989892  0.84219259     0.36000
C2224       C  0.79477568  0.63998669  0.88202891    -0.26000
C2225       C  0.80215443  0.63468621  0.93777719    -0.15200
C2226       C  0.83113940  0.59726585  0.93898176     0.37100
N2227       N  0.87568127  0.60507346  0.94087189    -0.89500
H2228       H  0.84025404  0.53202962  0.91597973     0.18200
H2229       H  0.78879244  0.66870205  0.86358478     0.18200
N2230       N  0.79213540  0.62107422  0.78849891    -0.88500
H2231       H  0.88534593  0.61399380  0.90374311     0.35600
H2232       H  0.89335861  0.57701787  0.94831019     0.40700
H2233       H  0.82042068  0.61510926  0.76778315     0.40300
H2234       H  0.78447475  0.65306946  0.78387182     0.35200
C2235       C  0.77655427  0.58662321  0.53109532    -0.26600
C2236       C  0.80053825  0.62463754  0.53129387    -0.14600
C2237       C  0.83786049  0.61208964  0.56175697     0.36000
C2238       C  0.83136542  0.59692768  0.61248438    -0.26000
C2239       C  0.80723951  0.56203117  0.61657974    -0.15200
C2240       C  0.77980599  0.55536012  0.57279619     0.37100
N2241       N  0.75746799  0.51744021  0.56803646    -0.89500
H2242       H  0.75574692  0.58145725  0.49856219     0.18200
H2243       H  0.85648118  0.59997384  0.64098616     0.18200
N2244       N  0.87121733  0.58675184  0.53816229    -0.88500
H2245       H  0.73868722  0.51364177  0.60109018     0.35600
H2246       H  0.77939942  0.49213738  0.56617277     0.40700
H2247       H  0.86025885  0.55694544  0.53018233     0.40300
H2248       H  0.89671187  0.58173891  0.56429007     0.35200
C2249       C  0.66199011  0.88076752  0.93003516    -0.26600
C2250       C  0.70196753  0.87236009  0.95677639    -0.14600
C2251       C  0.72553701  0.91076748  0.94903569     0.36000
C2252       C  0.72416914  0.93125489  0.89918911    -0.26000
C2253       C  0.68656614  0.93314447  0.86887488    -0.15200
C2254       C  0.65325345  0.91065998  0.88931622     0.37100
N2255       N  0.61022863  0.91977458  0.87158905    -0.89500
H2256       H  0.63483928  0.86701970  0.94279977     0.18200
H2257       H  0.74770850  0.95431016  0.89114590     0.18200
N2258       N  0.72670324  0.94174416  0.98925948    -0.88500
H2259       H  0.58827485  0.90347984  0.89357659     0.35600
H2260       H  0.60787563  0.90961703  0.83324651     0.40700
H2261       H  0.73352388  0.92887346  0.02511548     0.40300
H2262       H  0.75088407  0.96249424  0.98142424     0.35200
C2263       C  0.71767916  0.91202823  0.62208182    -0.26600
C2264       C  0.68211472  0.93878695  0.62504765    -0.14600
C2265       C  0.65204672  0.93310052  0.58467478     0.36000
C2266       C  0.66038094  0.89976916  0.54743841    -0.26000
C2267       C  0.69440030  0.86627762  0.55231507    -0.15200
C2268       C  0.70943762  0.87214186  0.60502651     0.37100
N2269       N  0.69293963  0.84881869  0.64811865    -0.89500
H2270       H  0.73929343  0.91292912  0.65368067     0.18200
H2271       H  0.64159323  0.90406398  0.51383993     0.18200
N2272       N  0.61589515  0.96158009  0.57767924    -0.88500
H2273       H  0.66445420  0.86383726  0.66075960     0.35600
H2274       H  0.71388423  0.84898699  0.67991341     0.40700
H2275       H  0.62701753  0.99190297  0.57429916     0.40300
H2276       H  0.59690440  0.96024975  0.61096280     0.35200
C2277       C  0.70500901  0.64682153  0.84733922    -0.26600
C2278       C  0.68570507  0.60841133  0.85505212    -0.14600
C2279       C  0.67374292  0.59799704  0.90451088     0.36000
C2280       C  0.68403359  0.62402228  0.94435529    -0.26000
C2281       C  0.71157743  0.65724628  0.94358347    -0.15200
C2282       C  0.71669911  0.67173308  0.89075944     0.37100
N2283       N  0.73270068  0.71232412  0.88105628    -0.89500
H2284       H  0.71141210  0.65728964  0.80814277     0.18200
H2285       H  0.65964864  0.62485523  0.97043273     0.18200
N2286       N  0.64841668  0.56258064  0.91568071    -0.88500
H2287       H  0.74373534  0.71665124  0.84307800     0.35600
H2288       H  0.75453845  0.71664804  0.91020044     0.40700
H2289       H  0.66503268  0.53520851  0.90365420     0.40300
H2290       H  0.61952636  0.56603822  0.89535908     0.35200
C2291       C  0.73689134  0.65283471  0.59382664    -0.26600
C2292       C  0.71403856  0.64895572  0.54703163    -0.14600
C2293       C  0.68112071  0.61770299  0.55409840     0.36000
C2294       C  0.66100866  0.61356893  0.60197508    -0.26000
C2295       C  0.68821332  0.61111921  0.64396017    -0.17600
C2296       C  0.72699436  0.63196886  0.64031165     0.37100
N2297       N  0.75419597  0.63669134  0.68431533    -0.89500
H2298       H  0.76286312  0.67269311  0.59399770     0.18200
H2299       H  0.63276297  0.59507131  0.60361967     0.18200
N2300       N  0.68335430  0.57746454  0.52829132    -0.88500
H2301       H  0.76790269  0.60756975  0.69488404     0.35600
H2302       H  0.73520188  0.64805394  0.71492302     0.40700
H2303       H  0.69333760  0.55382652  0.05439157     0.40300
H2304       H  0.65243202  0.56962756  0.51788089     0.35200
loop_ 
_geom_bond_atom_site_label_1 
_geom_bond_atom_site_label_2 
_geom_bond_distance 
_geom_bond_site_symmetry_2 
_ccdc_geom_bond_type 
O1            V9   1.906       .  S
O1           C11   1.266       .  A
O2          V585   1.937       .  S
O2           C12   1.268       .  A
O3          V585   1.965       .  S
O3           C13   1.284       .  A
O4            V9   1.925       .  S
O4           C14   1.271       .  A
O5          V586   1.849       .  S
O5           C14   1.245       .  A
O6           V10   1.898       .  S
O6           C13   1.256       .  A
O7           V10   1.899       .  S
O7           C12   1.268       .  A
O8          V586   1.886       .  S
O8           C11   1.247       .  A
V9          O578   1.937   1_545  S
V9          O579   1.965   1_545  S
V9          V586   2.071       .  T
V10         O581   1.849       .  S
V10         O584   1.886       .  S
V10         V585   2.071       .  T
C11         C262   1.458       .  S
C12         C248   1.519       .  S
C13         C237   1.531       .  S
C14         C279   1.463       .  S
C15         C276   1.676   1_556  S
C15         C553   1.652       .  S
C15         C319   2.000       .  S
C15         C335   2.013   1_556  S
C16         C234   1.733       .  S
C16         C539   1.776       .  S
C16          C32   1.995       .  S
C16          C63   1.962       .  S
O17          V25   1.894   1_545  S
O17          C27   1.260       .  A
O18         V601   1.870       .  S
O18          C28   1.255       .  A
O19         V601   1.846       .  S
O19          C29   1.247       .  A
O20          V25   1.902   1_545  S
O20          C30   1.252       .  A
O21         V602   1.959   1_545  S
O21          C30   1.285       .  A
O22          V26   1.932       .  S
O22          C29   1.273       .  A
O23          V26   1.915       .  S
O23          C28   1.266       .  A
O24         V602   1.933   1_545  S
O24          C27   1.267       .  A
V25         O594   1.870       .  S
V25         O595   1.846       .  S
V25         V602   2.060       .  T
V26         O597   1.959       .  S
V26         O600   1.933       .  S
V26         V601   2.060       .  T
C27         C206   1.502       .  S
C28         C178   1.469       .  S
C29         C192   1.461       .  S
C30         C223   1.522       .  S
C31         C209   1.787       .  S
C31         C508   1.736       .  S
C31          C48   1.984       .  S
C31         C303   2.002       .  S
C32         C195   1.707       .  S
C32         C469   1.628       .  S
C32          C64   2.034       .  S
O33          V41   1.894       .  S
O33          C43   1.263       .  A
O34        V1193   1.911       .  S
O34          C44   1.263       .  A
O35        V1193   1.863       .  S
O35          C45   1.248       .  A
O36          V41   1.875       .  S
O36          C46   1.252       .  A
O37          V42   1.942       .  S
O37          C46   1.278       .  A
O38        V1194   1.928       .  S
O38          C45   1.272       .  A
O39        V1194   1.923       .  S
O39          C44   1.268       .  A
O40          V42   1.906       .  S
O40          C43   1.265       .  A
V41        O1186   1.911   1_455  S
V41        O1187   1.863   1_455  S
V41          V42   2.061       .  T
V42        O1190   1.928   1_455  S
V42        O1191   1.923   1_455  S
C43         C153   1.465       .  S
C44         C125   1.491       .  S
C45         C136   1.465       .  S
C46         C167   1.479       .  S
C47         C150   1.702       .  S
C47         C452   1.693       .  S
C47          C63   2.017       .  S
C47         C303   2.014       .  S
C48         C139   1.635       .  S
C48         C410   1.748       .  S
C48          C64   2.016       .  S
O49          V57   1.918   1_455  S
O49          C59   1.268       .  A
O50        V1209   1.909       .  S
O50          C60   1.269       .  A
O51        V1209   1.922       .  S
O51          C61   1.267       .  A
O52          V57   1.916   1_455  S
O52          C62   1.268       .  A
O53          V58   1.889   1_455  S
O53          C62   1.258       .  A
O54        V1210   1.890       .  S
O54          C61   1.257       .  A
O55        V1210   1.879       .  S
O55          C60   1.252       .  A
O56          V58   1.871   1_455  S
O56          C59   1.254       .  A
V57        O1202   1.909       .  S
V57        O1203   1.922       .  S
V57          V58   2.073       .  T
V58        O1206   1.890       .  S
V58        O1207   1.879       .  S
C59          C97   1.462       .  S
C60          C83   1.470       .  S
C61          C66   1.477       .  S
C62         C108   1.475       .  S
C63          C94   1.698       .  S
C63         C399   1.681       .  S
C64          C69   1.728       .  S
C64         C368   1.670       .  S
C65          C66   1.384       .  A
C65          C70   1.417       .  A
C65          H72   1.085       .  S
C66          C67   1.385       .  A
C67          C68   1.402       .  A
C67          N74   1.441       .  S
C68          C69   1.458       .  A
C68          H73   1.054       .  S
C69          C70   1.464       .  A
C70          N71   1.410       .  S
N71          H75   1.045       .  S
N71          H76   1.029       .  S
N74          H77   1.043       .  S
N74          H78   1.044       .  S
C79          C80   1.424       .  A
C79          C84   1.392       .  A
C79          H86   1.023       .  S
C80         C352   1.672       .  S
C80          C81   1.435       .  A
C81          C82   1.420       .  A
C81          N88   1.414       .  S
C82          C83   1.392       .  A
C82          H87   1.080       .  S
C83          C84   1.377       .  A
C84          N85   1.440       .  S
N85          H89   1.046       .  S
N85          H90   1.045       .  S
N88          H91   1.038       .  S
N88          H92   1.047       .  S
C93          C94   1.444       .  A
C93          C98   1.412       .  A
C93         H100   1.050       .  S
C94          C95   1.481       .  A
C95          C96   1.400       .  A
C95         N102   1.422       .  S
C96          C97   1.367       .  A
C96         H101   1.083       .  S
C97          C98   1.384       .  A
C98          N99   1.429       .  S
N99         H103   1.046       .  S
N99         H104   1.043       .  S
N102        H106   1.043       .  S
N102        H393   1.043       .  S
H105        N390   1.043       .  S
C107        C108   1.369       .  A
C107        C112   1.409       .  A
C107        H114   1.084       .  S
C108        C109   1.387       .  A
C109        C110   1.418       .  A
C109        N116   1.434       .  S
C110        C111   1.398       .  A
C110        H115   1.046       .  S
C111        C351   1.682   1_554  S
C111        C112   1.498       .  A
C112        N113   1.438   1_554  S
N113        H117   1.044       .  S
N113        H406   1.045   1_556  S
N116        H119   1.041       .  S
N116        H120   1.043       .  S
H118        N401   1.045       .  S
C121        C122   1.432       .  A
C121        C126   1.416       .  A
C121        H128   1.054       .  S
C122        C336   1.749       .  S
C122        C123   1.511       .  A
C123        C124   1.422       .  A
C123        N130   1.444       .  S
C124        C125   1.375       .  A
C124        H129   1.083       .  S
C125        C126   1.383       .  A
C126        N127   1.430       .  S
N127        H131   1.044       .  S
N127        H132   1.039       .  S
N130        H134   1.044   1_554  S
N130        H421   1.041       .  S
H133        N418   1.041       .  S
C135        C136   1.395       .  A
C135        C140   1.419       .  A
C135        H142   1.085       .  S
C136        C137   1.379       .  A
C137        C138   1.387       .  A
C137        N144   1.421       .  S
C138        C139   1.348       .  A
C138        H143   1.022       .  S
C139        C140   1.485       .  A
C140        N141   1.447       .  S
N141        H145   1.045       .  S
N141        H434   1.037       .  S
N144        H147   1.044       .  S
N144        H148   1.042       .  S
H146        N429   1.038   1_554  S
C149        C150   1.371       .  A
C149        C154   1.382       .  A
C149        H156   1.007       .  S
C150        C151   1.493       .  A
C151        C152   1.433       .  A
C151        N158   1.436       .  S
C152        C153   1.394       .  A
C152        H157   1.084       .  S
C153        C154   1.373       .  A
C154        N155   1.436       .  S
N155        H159   1.042       .  S
N155        H160   1.045       .  S
N158        H162   1.041       .  S
N158        H449   1.044       .  S
H161        N446   1.044       .  S
C163        C164   1.419       .  A
C163        C168   1.393       .  A
C163        H170   1.013       .  S
C164        C335   1.693       .  S
C164        C165   1.460       .  A
C165        C166   1.435       .  A
C165        N172   1.419       .  S
C166        C167   1.399       .  A
C166        H171   1.084       .  S
C167        C168   1.383       .  A
C168        N169   1.438       .  S
N169        H173   1.041       .  S
N169        H174   1.044       .  S
N172        H175   1.024       .  S
N172        H176   1.042       .  S
C177        C178   1.401       .  A
C177        C182   1.418       .  A
C177        H184   1.084       .  S
C178        C179   1.392       .  A
C179        C180   1.401       .  A
C179        N186   1.442       .  S
C180        C181   1.429       .  A
C180        H185   1.062       .  S
C181        C320   1.621   1_554  S
C181        C182   1.410       .  A
C182        N183   1.417       .  S
N183        H187   1.047       .  S
N183        H188   1.038       .  S
N186        H189   1.041       .  S
N186        H190   1.046       .  S
C191        C192   1.382       .  A
C191        C196   1.406       .  A
C191        H198   1.086       .  S
C192        C193   1.374       .  A
C193        C194   1.399       .  A
C193        N200   1.435       .  S
C194        C195   1.461       .  A
C194        H199   1.041       .  S
C195        C196   1.440       .  A
C196        N197   1.389       .  S
N197        H201   1.039       .  S
N197        H202   1.035       .  S
N200        H203   1.045       .  S
N200        H204   1.045       .  S
C205        C206   1.400       .  A
C205        C210   1.435       .  A
C205        H212   1.083       .  S
C206        C207   1.376       .  A
C207        C208   1.416       .  A
C207        N214   1.440       .  S
C208        C209   1.462       .  A
C208        H213   1.039       .  S
C209        C210   1.468       .  A
C210        N211   1.429       .  S
N211        H215   1.044       .  S
N211        H216   1.048       .  S
N214        H217   1.045       .  S
N214        H218   1.044       .  S
C219        C220   1.456       .  A
C219        C224   1.460       .  A
C219        H226   1.078   1_554  S
C220        C319   1.737   1_554  S
C220        C221   1.444       .  A
C221        C222   1.407       .  A
C221        N228   1.430       .  S
C222        C223   1.378       .  A
C222        H227   1.082       .  S
C223        C224   1.438       .  A
C224        N225   1.430       .  S
N225        H229   1.044       .  S
N225        H230   1.039   1_545  S
N228        H231   1.047       .  S
N228        H232   1.049       .  S
C233        C234   1.441       .  A
C233        C238   1.430       .  A
C233        H240   1.024       .  S
C234        C235   1.470       .  A
C235        C236   1.436       .  A
C235        N242   1.439       .  S
C236        C237   1.411       .  A
C236        H241   1.083       .  S
C237        C238   1.392       .  A
C238        N239   1.438       .  S
N239        H243   1.045       .  S
N239        H244   1.045       .  S
N242        H245   1.027       .  S
N242        H246   1.047       .  S
C247        C248   1.376       .  A
C247        C252   1.384       .  A
C247        H254   1.054       .  S
C248        C249   1.424       .  A
C249        C250   1.454       .  A
C249        N256   1.434       .  S
C250        C251   1.479       .  A
C250        H255   1.047       .  S
C251        C304   1.775       .  S
C251        C252   1.447       .  A
C252        N253   1.440       .  S
N253        H257   1.046       .  S
N253        H258   1.048       .  S
N256        H259   1.043       .  S
N256        H260   1.045       .  S
C261        C262   1.403       .  A
C261        C266   1.433       .  A
C261        H268   1.082       .  S
C262        C263   1.369       .  A
C263        C264   1.371       .  A
C263        N270   1.437       .  S
C264        C265   1.396       .  A
C264        H269   1.016       .  S
C265        C303   1.652       .  S
C265        C266   1.443       .  A
C266        N267   1.429       .  S
N267        H271   1.047       .  S
N267        H272   1.027       .  S
N270        H273   1.046       .  S
N270        H274   1.045       .  S
C275        C276   1.408       .  A
C275        C280   1.406       .  A
C275        H282   1.053       .  S
C276        C277   1.476       .  A
C277        C278   1.392       .  A
C277        N284   1.449       .  S
C278        C279   1.374       .  A
C278        H283   1.086       .  S
C279        C280   1.413       .  A
C280        N281   1.428       .  S
N281        H285   1.040       .  S
N281        H286   1.045       .  S
N284        H288   1.046       .  S
N284        H575   1.038       .  S
H287        N572   1.038       .  S
O289        V297   1.907       .  S
O289        C299   1.266       .  A
O290        V873   1.939       .  S
O290        C300   1.269       .  A
O291        V873   1.964       .  S
O291        C301   1.283       .  A
O292        V297   1.924       .  S
O292        C302   1.271       .  A
O293        V874   1.848       .  S
O293        C302   1.244       .  A
O294        V298   1.898       .  S
O294        C301   1.256       .  A
O295        V298   1.898       .  S
O295        C300   1.267       .  A
O296        V874   1.885       .  S
O296        C299   1.247       .  A
V297        O866   1.939   1_545  S
V297        O867   1.964   1_545  S
V297        V874   2.072       .  T
V298        O869   1.848       .  S
V298        O872   1.885       .  S
V298        V873   2.072       .  T
C299        C550   1.458       .  S
C300        C536   1.515       .  S
C301        C525   1.530       .  S
C302        C567   1.462       .  S
C303        C564   1.675       .  S
C304        C522   1.733   1_554  S
C304        C320   1.992   1_554  S
C304        C351   1.960   1_554  S
O305        V313   1.890   1_545  S
O305        C315   1.259       .  A
O306        V889   1.868       .  S
O306        C316   1.255       .  A
O307        V889   1.846       .  S
O307        C317   1.248       .  A
O308        V313   1.900   1_545  S
O308        C318   1.251       .  A
O309        V890   1.957   1_545  S
O309        C318   1.284       .  A
O310        V314   1.931       .  S
O310        C317   1.273       .  A
O311        V314   1.917       .  S
O311        C316   1.267       .  A
O312        V890   1.931   1_545  S
O312        C315   1.267       .  A
V313        O882   1.868       .  S
V313        O883   1.846       .  S
V313        V890   2.062       .  T
V314        O885   1.957       .  S
V314        O888   1.931       .  S
V314        V889   2.062       .  T
C315        C494   1.497       .  S
C316        C466   1.470       .  S
C317        C480   1.461       .  S
C318        C511   1.520       .  S
C319        C497   1.783       .  S
C319        C336   1.981   1_556  S
C320        C483   1.710       .  S
C320        C352   2.033   1_556  S
O321        V329   1.897       .  S
O321        C331   1.264       .  A
O322       V1481   1.913       .  S
O322        C332   1.264       .  A
O323       V1481   1.864       .  S
O323        C333   1.248       .  A
O324        V329   1.874       .  S
O324        C334   1.251       .  A
O325        V330   1.941       .  S
O325        C334   1.277       .  A
O326       V1482   1.928       .  S
O326        C333   1.272       .  A
O327       V1482   1.923       .  S
O327        C332   1.268       .  A
O328        V330   1.907       .  S
O328        C331   1.264       .  A
V329       O1474   1.913   1_455  S
V329       O1475   1.864   1_455  S
V329        V330   2.064       .  T
V330       O1478   1.928   1_455  S
V330       O1479   1.923   1_455  S
C331        C441   1.467       .  S
C332        C413   1.492       .  S
C333        C424   1.465       .  S
C334        C455   1.479       .  S
C335        C438   1.702   1_554  S
C335        C351   2.020   1_554  S
C336        C427   1.633   1_554  S
C336        C352   2.015       .  S
O337        V345   1.921   1_455  S
O337        C347   1.269       .  A
O338       V1497   1.909       .  S
O338        C348   1.269       .  A
O339       V1497   1.923       .  S
O339        C349   1.268       .  A
O340        V345   1.915   1_455  S
O340        C350   1.268       .  A
O341        V346   1.886   1_455  S
O341        C350   1.257       .  A
O342       V1498   1.888       .  S
O342        C349   1.257       .  A
O343       V1498   1.884       .  S
O343        C348   1.254       .  A
O344        V346   1.878   1_455  S
O344        C347   1.256       .  A
V345       O1490   1.909       .  S
V345       O1491   1.923       .  S
V345        V346   2.070       .  T
V346       O1494   1.888       .  S
V346       O1495   1.884       .  S
C347        C385   1.468       .  S
C348        C371   1.473       .  S
C349        C354   1.476       .  S
C350        C396   1.472       .  S
C351        C382   1.696       .  S
C352        C357   1.727   1_554  S
C353        C354   1.385       .  A
C353        C358   1.418       .  A
C353        H360   1.085       .  S
C354        C355   1.384       .  A
C355        C356   1.400       .  A
C355        N362   1.441       .  S
C356        C357   1.457       .  A
C356        H361   1.053       .  S
C357        C358   1.464       .  A
C358        N359   1.411       .  S
N359        H363   1.045       .  S
N359        H364   1.029       .  S
N362        H365   1.043       .  S
N362        H366   1.044       .  S
C367        C368   1.425       .  A
C367        C372   1.393       .  A
C367        H374   1.024       .  S
C368        C369   1.433       .  A
C369        C370   1.420       .  A
C369        N376   1.414       .  S
C370        C371   1.392       .  A
C370        H375   1.080       .  S
C371        C372   1.379       .  A
C372        N373   1.441       .  S
N373        H377   1.046       .  S
N373        H378   1.045       .  S
N376        H379   1.039       .  S
N376        H380   1.046       .  S
C381        C382   1.445       .  A
C381        C386   1.416       .  A
C381        H388   1.052       .  S
C382        C383   1.476       .  A
C383        C384   1.400       .  A
C383        N390   1.422       .  S
C384        C385   1.368       .  A
C384        H389   1.082       .  S
C385        C386   1.390       .  A
C386        N387   1.434       .  S
N387        H391   1.044       .  S
N387        H392   1.045       .  S
N390        H394   1.043       .  S
C395        C396   1.368       .  A
C395        C400   1.408       .  A
C395        H402   1.084       .  S
C396        C397   1.386       .  A
C397        C398   1.419       .  A
C397        N404   1.434       .  S
C398        C399   1.395       .  A
C398        H403   1.048       .  S
C399        C400   1.497       .  A
C400        N401   1.437       .  S
N401        H405   1.044       .  S
N404        H407   1.040       .  S
N404        H408   1.043       .  S
C409        C410   1.430       .  A
C409        C414   1.416       .  A
C409        H416   1.054       .  S
C410        C411   1.510       .  A
C411        C412   1.423       .  A
C411        N418   1.444       .  S
C412        C413   1.376       .  A
C412        H417   1.082       .  S
C413        C414   1.383       .  A
C414        N415   1.430       .  S
N415        H419   1.044       .  S
N415        H420   1.039       .  S
N418        H422   1.044       .  S
C423        C424   1.394       .  A
C423        C428   1.418       .  A
C423        H430   1.085       .  S
C424        C425   1.380       .  A
C425        C426   1.388       .  A
C425        N432   1.422       .  S
C426        C427   1.349       .  A
C426        H431   1.024       .  S
C427        C428   1.484       .  A
C428        N429   1.447       .  S
N429        H433   1.044   1_556  S
N432        H435   1.044       .  S
N432        H436   1.042       .  S
C437        C438   1.369       .  A
C437        C442   1.381       .  A
C437        H444   1.004       .  S
C438        C439   1.492       .  A
C439        C440   1.435       .  A
C439        N446   1.436   1_556  S
C440        C441   1.396       .  A
C440        H445   1.084       .  S
C441        C442   1.373       .  A
C442        N443   1.437       .  S
N443        H447   1.042       .  S
N443        H448   1.045       .  S
N446        H450   1.041       .  S
C451        C452   1.418       .  A
C451        C456   1.391       .  A
C451        H458   1.009       .  S
C452        C453   1.460       .  A
C453        C454   1.436       .  A
C453        N460   1.420       .  S
C454        C455   1.400       .  A
C454        H459   1.084       .  S
C455        C456   1.382       .  A
C456        N457   1.438       .  S
N457        H461   1.041       .  S
N457        H462   1.044       .  S
N460        H463   1.026       .  S
N460        H464   1.041       .  S
C465        C466   1.400       .  A
C465        C470   1.418       .  A
C465        H472   1.084       .  S
C466        C467   1.392       .  A
C467        C468   1.403       .  A
C467        N474   1.442       .  S
C468        C469   1.431       .  A
C468        H473   1.062       .  S
C469        C470   1.413       .  A
C470        N471   1.416       .  S
N471        H475   1.047       .  S
N471        H476   1.038       .  S
N474        H477   1.041       .  S
N474        H478   1.046       .  S
C479        C480   1.382       .  A
C479        C484   1.404       .  A
C479        H486   1.086       .  S
C480        C481   1.375       .  A
C481        C482   1.399       .  A
C481        N488   1.435       .  S
C482        C483   1.461       .  A
C482        H487   1.040       .  S
C483        C484   1.442       .  A
C484        N485   1.390       .  S
N485        H489   1.042       .  S
N485        H490   1.034       .  S
N488        H491   1.045       .  S
N488        H492   1.045       .  S
C493        C494   1.399       .  A
C493        C498   1.433       .  A
C493        H500   1.083       .  S
C494        C495   1.376       .  A
C495        C496   1.414       .  A
C495        N502   1.440       .  S
C496        C497   1.459       .  A
C496        H501   1.038       .  S
C497        C498   1.467       .  A
C498        N499   1.428       .  S
N499        H503   1.044       .  S
N499        H504   1.047       .  S
N502        H505   1.045       .  S
N502        H506   1.044       .  S
C507        C508   1.455       .  A
C507        C512   1.459       .  A
C507        H514   1.078       .  S
C508        C509   1.446       .  A
C509        C510   1.406       .  A
C509        N516   1.431       .  S
C510        C511   1.377       .  A
C510        H515   1.082       .  S
C511        C512   1.438       .  A
C512        N513   1.430       .  S
N513        H517   1.044       .  S
N513        H518   1.038   1_545  S
N516        H519   1.047       .  S
N516        H520   1.049       .  S
C521        C522   1.441       .  A
C521        C526   1.429       .  A
C521        H528   1.027       .  S
C522        C523   1.471       .  A
C523        C524   1.434       .  A
C523        N530   1.438       .  S
C524        C525   1.410       .  A
C524        H529   1.083       .  S
C525        C526   1.393       .  A
C526        N527   1.438       .  S
N527        H531   1.045       .  S
N527        H532   1.044       .  S
N530        H533   1.025   1_556  S
N530        H534   1.047       .  S
C535        C536   1.375       .  A
C535        C540   1.384       .  A
C535        H542   1.058       .  S
C536        C537   1.419       .  A
C537        C538   1.452       .  A
C537        N544   1.430       .  S
C538        C539   1.479       .  A
C538        H543   1.049       .  S
C539        C540   1.451       .  A
C540        N541   1.440       .  S
N541        H545   1.047       .  S
N541        H546   1.048       .  S
N544        H547   1.046       .  S
N544        H548   1.045       .  S
C549        C550   1.403       .  A
C549        C554   1.432       .  A
C549        H556   1.081       .  S
C550        C551   1.369       .  A
C551        C552   1.371       .  A
C551        N558   1.437       .  S
C552        C553   1.396       .  A
C552        H557   1.017       .  S
C553        C554   1.443       .  A
C554        N555   1.430       .  S
N555        H559   1.047       .  S
N555        H560   1.028       .  S
N558        H561   1.046       .  S
N558        H562   1.045       .  S
C563        C564   1.408       .  A
C563        C568   1.406       .  A
C563        H570   1.053       .  S
C564        C565   1.476       .  A
C565        C566   1.392       .  A
C565        N572   1.449       .  S
C566        C567   1.374       .  A
C566        H571   1.086       .  S
C567        C568   1.413       .  A
C568        N569   1.428       .  S
N569        H573   1.040       .  S
N569        H574   1.045       .  S
N572        H576   1.046       .  S
O577        V585   1.906       .  S
O577        C587   1.266       .  A
O578        C588   1.268       .  A
O579        C589   1.284       .  A
O580        V585   1.925       .  S
O580        C590   1.271       .  A
O581        C590   1.245       .  A
O582        V586   1.898   1_565  S
O582        C589   1.256       .  A
O583        V586   1.899   1_565  S
O583        C588   1.268       .  A
O584        C587   1.247       .  A
C587        C838   1.458       .  S
C588        C824   1.519       .  S
C589        C813   1.531       .  S
C590        C855   1.463       .  S
C591       C1129   1.652       .  S
C591        C852   1.676   1_556  S
C591        C895   2.000       .  S
C591        C911   2.013   1_556  S
C592        C810   1.733       .  S
C592       C1115   1.776       .  S
C592        C608   1.994       .  S
C592        C639   1.962       .  S
O593        V601   1.894       .  S
O593        C603   1.260       .  A
O594        C604   1.255       .  A
O595        C605   1.247       .  A
O596        V601   1.902       .  S
O596        C606   1.252       .  A
O597        C606   1.285       .  A
O598        V602   1.932       .  S
O598        C605   1.273       .  A
O599        V602   1.915       .  S
O599        C604   1.266       .  A
O600        C603   1.267       .  A
C603        C782   1.502       .  S
C604        C754   1.469       .  S
C605        C768   1.461       .  S
C606        C799   1.522       .  S
C607        C785   1.787       .  S
C607       C1084   1.736       .  S
C607        C879   2.002       .  S
C607        C624   1.984       .  S
C608       C1045   1.628       .  S
C608        C771   1.707       .  S
C608        C640   2.034       .  S
O609        V617   1.894       .  S
O609        C619   1.263       .  A
O610       V1769   1.911       .  S
O610        C620   1.263       .  A
O611       V1769   1.863       .  S
O611        C621   1.248       .  A
O612        V617   1.875       .  S
O612        C622   1.252       .  A
O613        V618   1.942       .  S
O613        C622   1.278       .  A
O614       V1770   1.928       .  S
O614        C621   1.272       .  A
O615       V1770   1.923       .  S
O615        C620   1.268       .  A
O616        V618   1.906       .  S
O616        C619   1.265       .  A
V617       O1762   1.911   1_455  S
V617       O1763   1.863   1_455  S
V617        V618   2.061       .  T
V618       O1766   1.928   1_455  S
V618       O1767   1.923   1_455  S
C619        C729   1.465       .  S
C620        C701   1.491       .  S
C621        C712   1.465       .  S
C622        C743   1.479       .  S
C623        C726   1.702       .  S
C623       C1028   1.693       .  S
C623        C879   2.014       .  S
C623        C639   2.017       .  S
C624        C986   1.748       .  S
C624        C715   1.635       .  S
C624        C640   2.016       .  S
O625        V633   1.918   1_455  S
O625        C635   1.268       .  A
O626       V1785   1.909       .  S
O626        C636   1.269       .  A
O627       V1785   1.922       .  S
O627        C637   1.267       .  A
O628        V633   1.916   1_455  S
O628        C638   1.268       .  A
O629        V634   1.889   1_455  S
O629        C638   1.258       .  A
O630       V1786   1.890       .  S
O630        C637   1.257       .  A
O631       V1786   1.879       .  S
O631        C636   1.252       .  A
O632        V634   1.871   1_455  S
O632        C635   1.254       .  A
V633       O1778   1.909       .  S
V633       O1779   1.922       .  S
V633        V634   2.073       .  T
V634       O1782   1.890       .  S
V634       O1783   1.879       .  S
C635        C673   1.462       .  S
C636        C659   1.470       .  S
C637        C642   1.477       .  S
C638        C684   1.475       .  S
C639        C670   1.698       .  S
C639        C975   1.681       .  S
C640        C645   1.728       .  S
C640        C944   1.670       .  S
C641        C642   1.384       .  A
C641        C646   1.417       .  A
C641        H648   1.085       .  S
C642        C643   1.385       .  A
C643        C644   1.402       .  A
C643        N650   1.441       .  S
C644        C645   1.458       .  A
C644        H649   1.054       .  S
C645        C646   1.464       .  A
C646        N647   1.410       .  S
N647        H651   1.045       .  S
N647        H652   1.029       .  S
N650        H653   1.043       .  S
N650        H654   1.044       .  S
C655        C656   1.424       .  A
C655        C660   1.392       .  A
C655        H662   1.023       .  S
C656        C928   1.672       .  S
C656        C657   1.435       .  A
C657        C658   1.420       .  A
C657        N664   1.414       .  S
C658        C659   1.392       .  A
C658        H663   1.080       .  S
C659        C660   1.377       .  A
C660        N661   1.440       .  S
N661        H665   1.046       .  S
N661        H666   1.045       .  S
N664        H667   1.038       .  S
N664        H668   1.047       .  S
C669        C670   1.444       .  A
C669        C674   1.412       .  A
C669        H676   1.050       .  S
C670        C671   1.481       .  A
C671        C672   1.400       .  A
C671        N678   1.422       .  S
C672        C673   1.367       .  A
C672        H677   1.083       .  S
C673        C674   1.384       .  A
C674        N675   1.429       .  S
N675        H679   1.046       .  S
N675        H680   1.043       .  S
N678        H969   1.043       .  S
N678        H682   1.043       .  S
H681        N966   1.043       .  S
C683        C684   1.369       .  A
C683        C688   1.409       .  A
C683        H690   1.084       .  S
C684        C685   1.387       .  A
C685        C686   1.418       .  A
C685        N692   1.434       .  S
C686        C687   1.398       .  A
C686        H691   1.046       .  S
C687        C927   1.682   1_554  S
C687        C688   1.498       .  A
C688        N689   1.438   1_554  S
N689        H693   1.044       .  S
N689        H982   1.045   1_556  S
N692        H695   1.041       .  S
N692        H696   1.043       .  S
H694        N977   1.045       .  S
C697        C698   1.432       .  A
C697        C702   1.416       .  A
C697        H704   1.054       .  S
C698        C912   1.749       .  S
C698        C699   1.511       .  A
C699        C700   1.422       .  A
C699        N706   1.444       .  S
C700        C701   1.375       .  A
C700        H705   1.083       .  S
C701        C702   1.383       .  A
C702        N703   1.430       .  S
N703        H707   1.044       .  S
N703        H708   1.039       .  S
N706        H997   1.041       .  S
N706        H710   1.044   1_554  S
H709        N994   1.041       .  S
C711        C712   1.395       .  A
C711        C716   1.419       .  A
C711        H718   1.085       .  S
C712        C713   1.379       .  A
C713        C714   1.387       .  A
C713        N720   1.421       .  S
C714        C715   1.348       .  A
C714        H719   1.022       .  S
C715        C716   1.485       .  A
C716        N717   1.447       .  S
N717        H721   1.045       .  S
N717       H1010   1.037       .  S
N720        H723   1.044       .  S
N720        H724   1.042       .  S
H722       N1005   1.038   1_554  S
C725        C726   1.371       .  A
C725        C730   1.382       .  A
C725        H732   1.007       .  S
C726        C727   1.493       .  A
C727        C728   1.433       .  A
C727        N734   1.436       .  S
C728        C729   1.394       .  A
C728        H733   1.084       .  S
C729        C730   1.373       .  A
C730        N731   1.436       .  S
N731        H735   1.042       .  S
N731        H736   1.045       .  S
N734       H1025   1.044       .  S
N734        H738   1.041       .  S
H737       N1022   1.044       .  S
C739        C740   1.419       .  A
C739        C744   1.393       .  A
C739        H746   1.013       .  S
C740        C911   1.693       .  S
C740        C741   1.460       .  A
C741        C742   1.435       .  A
C741        N748   1.419       .  S
C742        C743   1.399       .  A
C742        H747   1.084       .  S
C743        C744   1.383       .  A
C744        N745   1.438       .  S
N745        H749   1.041       .  S
N745        H750   1.044       .  S
N748        H751   1.024       .  S
N748        H752   1.042       .  S
C753        C754   1.401       .  A
C753        C758   1.418       .  A
C753        H760   1.084       .  S
C754        C755   1.392       .  A
C755        C756   1.401       .  A
C755        N762   1.442       .  S
C756        C757   1.429       .  A
C756        H761   1.062       .  S
C757        C896   1.621   1_554  S
C757        C758   1.410       .  A
C758        N759   1.417       .  S
N759        H763   1.047       .  S
N759        H764   1.038       .  S
N762        H765   1.041       .  S
N762        H766   1.046       .  S
C767        C768   1.382       .  A
C767        C772   1.406       .  A
C767        H774   1.086       .  S
C768        C769   1.374       .  A
C769        C770   1.399       .  A
C769        N776   1.435       .  S
C770        C771   1.461       .  A
C770        H775   1.041       .  S
C771        C772   1.440       .  A
C772        N773   1.389       .  S
N773        H777   1.039       .  S
N773        H778   1.035       .  S
N776        H779   1.045       .  S
N776        H780   1.045       .  S
C781        C782   1.400       .  A
C781        C786   1.435       .  A
C781        H788   1.083       .  S
C782        C783   1.376       .  A
C783        C784   1.416       .  A
C783        N790   1.440       .  S
C784        C785   1.462       .  A
C784        H789   1.039       .  S
C785        C786   1.468       .  A
C786        N787   1.429       .  S
N787        H791   1.044       .  S
N787        H792   1.048       .  S
N790        H793   1.045       .  S
N790        H794   1.044       .  S
C795        C796   1.456       .  A
C795        C800   1.460       .  A
C795        H802   1.078   1_554  S
C796        C895   1.737   1_554  S
C796        C797   1.444       .  A
C797        C798   1.407       .  A
C797        N804   1.430       .  S
C798        C799   1.378       .  A
C798        H803   1.082       .  S
C799        C800   1.438       .  A
C800        N801   1.430       .  S
N801        H805   1.044       .  S
N801        H806   1.039       .  S
N804        H807   1.047       .  S
N804        H808   1.049       .  S
C809        C810   1.441       .  A
C809        C814   1.430       .  A
C809        H816   1.024       .  S
C810        C811   1.470       .  A
C811        C812   1.436       .  A
C811        N818   1.439       .  S
C812        C813   1.411       .  A
C812        H817   1.083       .  S
C813        C814   1.392       .  A
C814        N815   1.438       .  S
N815        H819   1.045       .  S
N815        H820   1.045       .  S
N818        H821   1.027       .  S
N818        H822   1.047       .  S
C823        C824   1.376       .  A
C823        C828   1.384       .  A
C823        H830   1.054       .  S
C824        C825   1.424       .  A
C825        C826   1.454       .  A
C825        N832   1.434       .  S
C826        C827   1.479       .  A
C826        H831   1.047       .  S
C827        C880   1.775       .  S
C827        C828   1.447       .  A
C828        N829   1.440       .  S
N829        H833   1.046       .  S
N829        H834   1.047       .  S
N832        H835   1.043       .  S
N832        H836   1.045       .  S
C837        C838   1.403       .  A
C837        C842   1.433       .  A
C837        H844   1.082       .  S
C838        C839   1.369       .  A
C839        C840   1.371       .  A
C839        N846   1.437       .  S
C840        C841   1.396       .  A
C840        H845   1.016       .  S
C841        C879   1.652       .  S
C841        C842   1.443       .  A
C842        N843   1.429       .  S
N843        H847   1.047       .  S
N843        H848   1.027       .  S
N846        H849   1.046       .  S
N846        H850   1.045       .  S
C851        C852   1.408       .  A
C851        C856   1.406       .  A
C851        H858   1.053       .  S
C852        C853   1.476       .  A
C853        C854   1.392       .  A
C853        N860   1.449       .  S
C854        C855   1.374       .  A
C854        H859   1.086       .  S
C855        C856   1.413       .  A
C856        N857   1.428       .  S
N857        H861   1.040       .  S
N857        H862   1.045       .  S
N860       H1151   1.038       .  S
N860        H864   1.046       .  S
H863       N1148   1.038       .  S
O865        V873   1.907       .  S
O865        C875   1.266       .  A
O866        C876   1.269       .  A
O867        C877   1.283       .  A
O868        V873   1.924       .  S
O868        C878   1.271       .  A
O869        C878   1.244       .  A
O870        V874   1.898   1_565  S
O870        C877   1.256       .  A
O871        V874   1.898   1_565  S
O871        C876   1.267       .  A
O872        C875   1.247       .  A
C875       C1126   1.458       .  S
C876       C1112   1.515       .  S
C877       C1101   1.530       .  S
C878       C1143   1.462       .  S
C879       C1140   1.675       .  S
C880       C1098   1.733   1_554  S
C880        C896   1.992   1_554  S
C880        C927   1.960   1_554  S
O881        V889   1.890       .  S
O881        C891   1.259       .  A
O882        C892   1.255       .  A
O883        C893   1.248       .  A
O884        V889   1.900       .  S
O884        C894   1.251       .  A
O885        C894   1.284       .  A
O886        V890   1.931       .  S
O886        C893   1.273       .  A
O887        V890   1.917       .  S
O887        C892   1.267       .  A
O888        C891   1.267       .  A
C891       C1070   1.497       .  S
C892       C1042   1.470       .  S
C893       C1056   1.461       .  S
C894       C1087   1.520       .  S
C895       C1073   1.783       .  S
C895        C912   1.981   1_556  S
C896       C1059   1.710       .  S
C896        C928   2.033   1_556  S
O897        V905   1.897       .  S
O897        C907   1.264       .  A
O898       V2057   1.913       .  S
O898        C908   1.264       .  A
O899       V2057   1.864       .  S
O899        C909   1.248       .  A
O900        V905   1.874       .  S
O900        C910   1.251       .  A
O901        V906   1.941       .  S
O901        C910   1.277       .  A
O902       V2058   1.928       .  S
O902        C909   1.272       .  A
O903       V2058   1.923       .  S
O903        C908   1.268       .  A
O904        V906   1.907       .  S
O904        C907   1.264       .  A
V905       O2050   1.913   1_455  S
V905       O2051   1.864   1_455  S
V905        V906   2.064       .  T
V906       O2054   1.928   1_455  S
V906       O2055   1.923   1_455  S
C907       C1017   1.467       .  S
C908        C989   1.492       .  S
C909       C1000   1.465       .  S
C910       C1031   1.479       .  S
C911       C1014   1.702   1_554  S
C911        C927   2.020   1_554  S
C912       C1003   1.633   1_554  S
C912        C928   2.015       .  S
O913        V921   1.921   1_455  S
O913        C923   1.269       .  A
O914       V2073   1.909       .  S
O914        C924   1.269       .  A
O915       V2073   1.923       .  S
O915        C925   1.268       .  A
O916        V921   1.915   1_455  S
O916        C926   1.268       .  A
O917        V922   1.886   1_455  S
O917        C926   1.257       .  A
O918       V2074   1.888       .  S
O918        C925   1.257       .  A
O919       V2074   1.884       .  S
O919        C924   1.254       .  A
O920        V922   1.878   1_455  S
O920        C923   1.256       .  A
V921       O2066   1.909       .  S
V921       O2067   1.923       .  S
V921        V922   2.070       .  T
V922       O2070   1.888       .  S
V922       O2071   1.884       .  S
C923        C961   1.468       .  S
C924        C947   1.473       .  S
C925        C930   1.476       .  S
C926        C972   1.472       .  S
C927        C958   1.696       .  S
C928        C933   1.727   1_554  S
C929        C930   1.385       .  A
C929        C934   1.418       .  A
C929        H936   1.085       .  S
C930        C931   1.384       .  A
C931        C932   1.400       .  A
C931        N938   1.441       .  S
C932        C933   1.457       .  A
C932        H937   1.053       .  S
C933        C934   1.464       .  A
C934        N935   1.411       .  S
N935        H939   1.045       .  S
N935        H940   1.029       .  S
N938        H941   1.043       .  S
N938        H942   1.044       .  S
C943        C944   1.425       .  A
C943        C948   1.393       .  A
C943        H950   1.024       .  S
C944        C945   1.433       .  A
C945        C946   1.420       .  A
C945        N952   1.414       .  S
C946        C947   1.392       .  A
C946        H951   1.080       .  S
C947        C948   1.379       .  A
C948        N949   1.441       .  S
N949        H953   1.046       .  S
N949        H954   1.045       .  S
N952        H955   1.039       .  S
N952        H956   1.046       .  S
C957        C958   1.445       .  A
C957        C962   1.416       .  A
C957        H964   1.052       .  S
C958        C959   1.476       .  A
C959        C960   1.400       .  A
C959        N966   1.422       .  S
C960        C961   1.368       .  A
C960        H965   1.082       .  S
C961        C962   1.390       .  A
C962        N963   1.434       .  S
N963        H967   1.044       .  S
N963        H968   1.045       .  S
N966        H970   1.043       .  S
C971        C972   1.368       .  A
C971        C976   1.408       .  A
C971        H978   1.084       .  S
C972        C973   1.386       .  A
C973        C974   1.419       .  A
C973        N980   1.434       .  S
C974        C975   1.395       .  A
C974        H979   1.048       .  S
C975        C976   1.497       .  A
C976        N977   1.437       .  S
N977        H981   1.044       .  S
N980        H983   1.040       .  S
N980        H984   1.043       .  S
C985        C986   1.430       .  A
C985        C990   1.416       .  A
C985        H992   1.054       .  S
C986        C987   1.510       .  A
C987        C988   1.423       .  A
C987        N994   1.444       .  S
C988        C989   1.376       .  A
C988        H993   1.082       .  S
C989        C990   1.383       .  A
C990        N991   1.430       .  S
N991        H995   1.044       .  S
N991        H996   1.039       .  S
N994        H998   1.044       .  S
C999       C1000   1.394       .  A
C999       C1004   1.418       .  A
C999       H1006   1.085       .  S
C1000      C1001   1.380       .  A
C1001      C1002   1.388       .  A
C1001      N1008   1.422       .  S
C1002      C1003   1.349       .  A
C1002      H1007   1.024       .  S
C1003      C1004   1.484       .  A
C1004      N1005   1.447       .  S
N1005      H1009   1.044   1_556  S
N1008      H1011   1.044       .  S
N1008      H1012   1.042       .  S
C1013      C1014   1.369       .  A
C1013      C1018   1.381       .  A
C1013      H1020   1.004       .  S
C1014      C1015   1.492       .  A
C1015      C1016   1.435       .  A
C1015      N1022   1.436   1_556  S
C1016      C1017   1.396       .  A
C1016      H1021   1.084       .  S
C1017      C1018   1.373       .  A
C1018      N1019   1.437       .  S
N1019      H1023   1.042       .  S
N1019      H1024   1.045       .  S
N1022      H1026   1.041       .  S
C1027      C1028   1.418       .  A
C1027      C1032   1.391       .  A
C1027      H1034   1.009       .  S
C1028      C1029   1.460       .  A
C1029      C1030   1.436       .  A
C1029      N1036   1.420       .  S
C1030      C1031   1.400       .  A
C1030      H1035   1.084       .  S
C1031      C1032   1.382       .  A
C1032      N1033   1.438       .  S
N1033      H1037   1.041       .  S
N1033      H1038   1.044       .  S
N1036      H1039   1.026       .  S
N1036      H1040   1.041       .  S
C1041      C1042   1.400       .  A
C1041      C1046   1.418       .  A
C1041      H1048   1.084       .  S
C1042      C1043   1.392       .  A
C1043      C1044   1.403       .  A
C1043      N1050   1.442       .  S
C1044      C1045   1.431       .  A
C1044      H1049   1.062       .  S
C1045      C1046   1.413       .  A
C1046      N1047   1.416       .  S
N1047      H1051   1.047       .  S
N1047      H1052   1.038       .  S
N1050      H1053   1.041       .  S
N1050      H1054   1.046       .  S
C1055      C1056   1.382       .  A
C1055      C1060   1.404       .  A
C1055      H1062   1.086       .  S
C1056      C1057   1.375       .  A
C1057      C1058   1.399       .  A
C1057      N1064   1.435       .  S
C1058      C1059   1.461       .  A
C1058      H1063   1.040       .  S
C1059      C1060   1.442       .  A
C1060      N1061   1.390       .  S
N1061      H1065   1.042       .  S
N1061      H1066   1.034       .  S
N1064      H1067   1.045       .  S
N1064      H1068   1.045       .  S
C1069      C1070   1.399       .  A
C1069      C1074   1.433       .  A
C1069      H1076   1.083       .  S
C1070      C1071   1.376       .  A
C1071      C1072   1.414       .  A
C1071      N1078   1.440       .  S
C1072      C1073   1.459       .  A
C1072      H1077   1.038       .  S
C1073      C1074   1.467       .  A
C1074      N1075   1.428       .  S
N1075      H1079   1.044       .  S
N1075      H1080   1.047       .  S
N1078      H1081   1.045       .  S
N1078      H1082   1.044       .  S
C1083      C1084   1.455       .  A
C1083      C1088   1.459       .  A
C1083      H1090   1.078       .  S
C1084      C1085   1.446       .  A
C1085      C1086   1.406       .  A
C1085      N1092   1.431       .  S
C1086      C1087   1.377       .  A
C1086      H1091   1.082       .  S
C1087      C1088   1.438       .  A
C1088      N1089   1.430       .  S
N1089      H1093   1.044       .  S
N1089      H1094   1.038       .  S
N1092      H1095   1.047       .  S
N1092      H1096   1.049       .  S
C1097      C1098   1.441       .  A
C1097      C1102   1.429       .  A
C1097      H1104   1.027       .  S
C1098      C1099   1.471       .  A
C1099      C1100   1.434       .  A
C1099      N1106   1.438       .  S
C1100      C1101   1.410       .  A
C1100      H1105   1.083       .  S
C1101      C1102   1.393       .  A
C1102      N1103   1.438       .  S
N1103      H1107   1.045       .  S
N1103      H1108   1.044       .  S
N1106      H1109   1.025   1_556  S
N1106      H1110   1.047       .  S
C1111      C1112   1.375       .  A
C1111      C1116   1.384       .  A
C1111      H1118   1.058       .  S
C1112      C1113   1.419       .  A
C1113      C1114   1.452       .  A
C1113      N1120   1.430       .  S
C1114      C1115   1.479       .  A
C1114      H1119   1.049       .  S
C1115      C1116   1.451       .  A
C1116      N1117   1.440       .  S
N1117      H1121   1.047       .  S
N1117      H1122   1.048       .  S
N1120      H1123   1.046       .  S
N1120      H1124   1.045       .  S
C1125      C1126   1.403       .  A
C1125      C1130   1.432       .  A
C1125      H1132   1.081       .  S
C1126      C1127   1.369       .  A
C1127      C1128   1.371       .  A
C1127      N1134   1.437       .  S
C1128      C1129   1.396       .  A
C1128      H1133   1.017       .  S
C1129      C1130   1.443       .  A
C1130      N1131   1.430       .  S
N1131      H1135   1.047       .  S
N1131      H1136   1.028       .  S
N1134      H1137   1.046       .  S
N1134      H1138   1.045       .  S
C1139      C1140   1.408       .  A
C1139      C1144   1.406       .  A
C1139      H1146   1.053       .  S
C1140      C1141   1.476       .  A
C1141      C1142   1.392       .  A
C1141      N1148   1.449       .  S
C1142      C1143   1.374       .  A
C1142      H1147   1.086       .  S
C1143      C1144   1.413       .  A
C1144      N1145   1.428       .  S
N1145      H1149   1.040       .  S
N1145      H1150   1.045       .  S
N1148      H1152   1.046       .  S
O1153      V1161   1.906       .  S
O1153      C1163   1.266       .  A
O1154      V1737   1.937       .  S
O1154      C1164   1.268       .  A
O1155      V1737   1.965       .  S
O1155      C1165   1.284       .  A
O1156      V1161   1.925       .  S
O1156      C1166   1.271       .  A
O1157      V1738   1.849       .  S
O1157      C1166   1.245       .  A
O1158      V1162   1.898       .  S
O1158      C1165   1.256       .  A
O1159      V1162   1.899       .  S
O1159      C1164   1.268       .  A
O1160      V1738   1.886       .  S
O1160      C1163   1.247       .  A
V1161      O1730   1.937   1_545  S
V1161      O1731   1.965   1_545  S
V1161      V1738   2.071       .  T
V1162      O1733   1.849       .  S
V1162      O1736   1.886       .  S
V1162      V1737   2.071       .  T
C1163      C1414   1.458       .  S
C1164      C1400   1.519       .  S
C1165      C1389   1.531       .  S
C1166      C1431   1.463       .  S
C1167      C1705   1.652       .  S
C1167      C1428   1.676   1_556  S
C1167      C1471   2.000       .  S
C1167      C1487   2.013   1_556  S
C1168      C1386   1.734       .  S
C1168      C1691   1.776       .  S
C1168      C1184   1.995       .  S
C1168      C1215   1.962       .  S
O1169      V1177   1.894   1_545  S
O1169      C1179   1.260       .  A
O1170      V1753   1.870       .  S
O1170      C1180   1.255       .  A
O1171      V1753   1.846       .  S
O1171      C1181   1.247       .  A
O1172      V1177   1.902   1_545  S
O1172      C1182   1.252       .  A
O1173      V1754   1.959   1_545  S
O1173      C1182   1.285       .  A
O1174      V1178   1.932       .  S
O1174      C1181   1.273       .  A
O1175      V1178   1.915       .  S
O1175      C1180   1.266       .  A
O1176      V1754   1.933   1_545  S
O1176      C1179   1.267       .  A
V1177      O1746   1.870       .  S
V1177      O1747   1.846       .  S
V1177      V1754   2.061       .  T
V1178      O1749   1.959       .  S
V1178      O1752   1.933       .  S
V1178      V1753   2.061       .  T
C1179      C1358   1.502       .  S
C1180      C1330   1.469       .  S
C1181      C1344   1.461       .  S
C1182      C1375   1.522       .  S
C1183      C1361   1.787       .  S
C1183      C1660   1.736       .  S
C1183      C1455   2.002       .  S
C1183      C1200   1.984       .  S
C1184      C1621   1.628       .  S
C1184      C1347   1.707       .  S
C1184      C1216   2.034       .  S
O1185      V1193   1.894       .  S
O1185      C1195   1.263       .  A
O1186      C1196   1.263       .  A
O1187      C1197   1.248       .  A
O1188      V1193   1.875       .  S
O1188      C1198   1.252       .  A
O1189      V1194   1.942       .  S
O1189      C1198   1.278       .  A
O1190      C1197   1.272       .  A
O1191      C1196   1.268       .  A
O1192      V1194   1.906       .  S
O1192      C1195   1.265       .  A
V1193      V1194   2.061       .  T
C1195      C1305   1.465       .  S
C1196      C1277   1.491       .  S
C1197      C1288   1.465       .  S
C1198      C1319   1.479       .  S
C1199      C1302   1.702       .  S
C1199      C1604   1.693       .  S
C1199      C1455   2.014       .  S
C1199      C1215   2.017       .  S
C1200      C1562   1.748       .  S
C1200      C1291   1.635       .  S
C1200      C1216   2.016       .  S
O1201      V1209   1.918       .  S
O1201      C1211   1.268       .  A
O1202      C1212   1.269       .  A
O1203      C1213   1.267       .  A
O1204      V1209   1.916       .  S
O1204      C1214   1.268       .  A
O1205      V1210   1.889       .  S
O1205      C1214   1.258       .  A
O1206      C1213   1.257       .  A
O1207      C1212   1.252       .  A
O1208      V1210   1.871       .  S
O1208      C1211   1.254       .  A
V1209      V1210   2.073       .  T
C1211      C1249   1.462       .  S
C1212      C1235   1.470       .  S
C1213      C1218   1.477       .  S
C1214      C1260   1.475       .  S
C1215      C1246   1.698       .  S
C1215      C1551   1.681       .  S
C1216      C1221   1.728       .  S
C1216      C1520   1.670       .  S
C1217      C1218   1.384       .  A
C1217      C1222   1.417       .  A
C1217      H1224   1.085       .  S
C1218      C1219   1.385       .  A
C1219      C1220   1.402       .  A
C1219      N1226   1.441       .  S
C1220      C1221   1.458       .  A
C1220      H1225   1.054       .  S
C1221      C1222   1.464       .  A
C1222      N1223   1.410       .  S
N1223      H1227   1.045       .  S
N1223      H1228   1.029       .  S
N1226      H1229   1.043       .  S
N1226      H1230   1.044       .  S
C1231      C1232   1.424       .  A
C1231      C1236   1.392       .  A
C1231      H1238   1.023       .  S
C1232      C1504   1.672       .  S
C1232      C1233   1.435       .  A
C1233      C1234   1.420       .  A
C1233      N1240   1.414       .  S
C1234      C1235   1.392       .  A
C1234      H1239   1.080       .  S
C1235      C1236   1.377       .  A
C1236      N1237   1.440       .  S
N1237      H1241   1.046       .  S
N1237      H1242   1.045       .  S
N1240      H1243   1.038       .  S
N1240      H1244   1.047       .  S
C1245      C1246   1.444       .  A
C1245      C1250   1.412       .  A
C1245      H1252   1.050       .  S
C1246      C1247   1.481       .  A
C1247      C1248   1.400       .  A
C1247      N1254   1.422       .  S
C1248      C1249   1.367       .  A
C1248      H1253   1.083       .  S
C1249      C1250   1.384       .  A
C1250      N1251   1.429       .  S
N1251      H1255   1.046       .  S
N1251      H1256   1.043       .  S
N1254      H1545   1.043       .  S
N1254      H1258   1.043       .  S
H1257      N1542   1.043       .  S
C1259      C1260   1.369       .  A
C1259      C1264   1.409       .  A
C1259      H1266   1.084       .  S
C1260      C1261   1.387       .  A
C1261      C1262   1.418       .  A
C1261      N1268   1.434       .  S
C1262      C1263   1.398       .  A
C1262      H1267   1.046       .  S
C1263      C1503   1.682   1_554  S
C1263      C1264   1.498       .  A
C1264      N1265   1.438   1_554  S
N1265      H1269   1.044       .  S
N1265      H1558   1.045   1_556  S
N1268      H1271   1.041       .  S
N1268      H1272   1.043       .  S
H1270      N1553   1.045       .  S
C1273      C1274   1.432       .  A
C1273      C1278   1.416       .  A
C1273      H1280   1.054       .  S
C1274      C1488   1.749       .  S
C1274      C1275   1.511       .  A
C1275      C1276   1.422       .  A
C1275      N1282   1.444       .  S
C1276      C1277   1.375       .  A
C1276      H1281   1.083       .  S
C1277      C1278   1.383       .  A
C1278      N1279   1.430       .  S
N1279      H1283   1.044       .  S
N1279      H1284   1.039       .  S
N1282      H1573   1.041       .  S
N1282      H1286   1.044   1_554  S
H1285      N1570   1.041       .  S
C1287      C1288   1.395       .  A
C1287      C1292   1.419       .  A
C1287      H1294   1.085       .  S
C1288      C1289   1.379       .  A
C1289      C1290   1.387       .  A
C1289      N1296   1.421       .  S
C1290      C1291   1.348       .  A
C1290      H1295   1.022       .  S
C1291      C1292   1.485       .  A
C1292      N1293   1.447       .  S
N1293      H1297   1.044       .  S
N1293      H1586   1.037       .  S
N1296      H1299   1.044       .  S
N1296      H1300   1.042       .  S
H1298      N1581   1.038   1_554  S
C1301      C1302   1.371       .  A
C1301      C1306   1.382       .  A
C1301      H1308   1.007       .  S
C1302      C1303   1.493       .  A
C1303      C1304   1.433       .  A
C1303      N1310   1.436       .  S
C1304      C1305   1.394       .  A
C1304      H1309   1.084       .  S
C1305      C1306   1.373       .  A
C1306      N1307   1.436       .  S
N1307      H1311   1.042       .  S
N1307      H1312   1.045       .  S
N1310      H1601   1.044       .  S
N1310      H1314   1.041       .  S
H1313      N1598   1.044       .  S
C1315      C1316   1.419       .  A
C1315      C1320   1.393       .  A
C1315      H1322   1.013       .  S
C1316      C1487   1.693       .  S
C1316      C1317   1.460       .  A
C1317      C1318   1.435       .  A
C1317      N1324   1.419       .  S
C1318      C1319   1.399       .  A
C1318      H1323   1.084       .  S
C1319      C1320   1.383       .  A
C1320      N1321   1.438       .  S
N1321      H1325   1.041       .  S
N1321      H1326   1.044       .  S
N1324      H1327   1.024       .  S
N1324      H1328   1.042       .  S
C1329      C1330   1.401       .  A
C1329      C1334   1.418       .  A
C1329      H1336   1.084       .  S
C1330      C1331   1.392       .  A
C1331      C1332   1.401       .  A
C1331      N1338   1.442       .  S
C1332      C1333   1.429       .  A
C1332      H1337   1.062       .  S
C1333      C1472   1.621   1_554  S
C1333      C1334   1.410       .  A
C1334      N1335   1.417       .  S
N1335      H1339   1.047       .  S
N1335      H1340   1.038       .  S
N1338      H1341   1.041       .  S
N1338      H1342   1.046       .  S
C1343      C1344   1.382       .  A
C1343      C1348   1.406       .  A
C1343      H1350   1.086       .  S
C1344      C1345   1.374       .  A
C1345      C1346   1.399       .  A
C1345      N1352   1.435       .  S
C1346      C1347   1.461       .  A
C1346      H1351   1.041       .  S
C1347      C1348   1.440       .  A
C1348      N1349   1.389       .  S
N1349      H1353   1.039       .  S
N1349      H1354   1.035       .  S
N1352      H1355   1.045       .  S
N1352      H1356   1.045       .  S
C1357      C1358   1.400       .  A
C1357      C1362   1.435       .  A
C1357      H1364   1.083       .  S
C1358      C1359   1.376       .  A
C1359      C1360   1.416       .  A
C1359      N1366   1.440       .  S
C1360      C1361   1.462       .  A
C1360      H1365   1.039       .  S
C1361      C1362   1.468       .  A
C1362      N1363   1.429       .  S
N1363      H1367   1.044       .  S
N1363      H1368   1.048       .  S
N1366      H1369   1.045       .  S
N1366      H1370   1.044       .  S
C1371      C1372   1.456       .  A
C1371      C1376   1.460       .  A
C1371      H1378   1.078   1_554  S
C1372      C1471   1.737   1_554  S
C1372      C1373   1.444       .  A
C1373      C1374   1.407       .  A
C1373      N1380   1.430       .  S
C1374      C1375   1.378       .  A
C1374      H1379   1.082       .  S
C1375      C1376   1.438       .  A
C1376      N1377   1.430       .  S
N1377      H1381   1.044       .  S
N1377      H1382   1.039   1_545  S
N1380      H1383   1.047       .  S
N1380      H1384   1.049       .  S
C1385      C1386   1.441       .  A
C1385      C1390   1.430       .  A
C1385      H1392   1.024       .  S
C1386      C1387   1.470       .  A
C1387      C1388   1.436       .  A
C1387      N1394   1.439       .  S
C1388      C1389   1.411       .  A
C1388      H1393   1.083       .  S
C1389      C1390   1.392       .  A
C1390      N1391   1.438       .  S
N1391      H1395   1.045       .  S
N1391      H1396   1.045       .  S
N1394      H1397   1.027       .  S
N1394      H1398   1.047       .  S
C1399      C1400   1.376       .  A
C1399      C1404   1.384       .  A
C1399      H1406   1.054       .  S
C1400      C1401   1.424       .  A
C1401      C1402   1.454       .  A
C1401      N1408   1.434       .  S
C1402      C1403   1.479       .  A
C1402      H1407   1.047       .  S
C1403      C1456   1.775       .  S
C1403      C1404   1.447       .  A
C1404      N1405   1.440       .  S
N1405      H1409   1.047       .  S
N1405      H1410   1.047       .  S
N1408      H1411   1.043       .  S
N1408      H1412   1.045       .  S
C1413      C1414   1.403       .  A
C1413      C1418   1.433       .  A
C1413      H1420   1.082       .  S
C1414      C1415   1.369       .  A
C1415      C1416   1.371       .  A
C1415      N1422   1.437       .  S
C1416      C1417   1.396       .  A
C1416      H1421   1.016       .  S
C1417      C1455   1.652       .  S
C1417      C1418   1.443       .  A
C1418      N1419   1.429       .  S
N1419      H1423   1.047       .  S
N1419      H1424   1.027       .  S
N1422      H1425   1.046       .  S
N1422      H1426   1.045       .  S
C1427      C1428   1.408       .  A
C1427      C1432   1.406       .  A
C1427      H1434   1.053       .  S
C1428      C1429   1.476       .  A
C1429      C1430   1.392       .  A
C1429      N1436   1.449       .  S
C1430      C1431   1.374       .  A
C1430      H1435   1.086       .  S
C1431      C1432   1.413       .  A
C1432      N1433   1.428       .  S
N1433      H1437   1.040       .  S
N1433      H1438   1.045       .  S
N1436      H1727   1.038       .  S
N1436      H1440   1.046       .  S
H1439      N1724   1.038       .  S
O1441      V1449   1.907       .  S
O1441      C1451   1.266       .  A
O1442      V2025   1.939       .  S
O1442      C1452   1.269       .  A
O1443      V2025   1.964       .  S
O1443      C1453   1.283       .  A
O1444      V1449   1.924       .  S
O1444      C1454   1.271       .  A
O1445      V2026   1.848       .  S
O1445      C1454   1.244       .  A
O1446      V1450   1.898       .  S
O1446      C1453   1.256       .  A
O1447      V1450   1.898       .  S
O1447      C1452   1.267       .  A
O1448      V2026   1.885       .  S
O1448      C1451   1.247       .  A
V1449      O2018   1.939   1_545  S
V1449      O2019   1.964   1_545  S
V1449      V2026   2.072       .  T
V1450      O2021   1.848       .  S
V1450      O2024   1.885       .  S
V1450      V2025   2.072       .  T
C1451      C1702   1.458       .  S
C1452      C1688   1.515       .  S
C1453      C1677   1.530       .  S
C1454      C1719   1.462       .  S
C1455      C1716   1.675       .  S
C1456      C1674   1.733   1_554  S
C1456      C1472   1.992   1_554  S
C1456      C1503   1.960   1_554  S
O1457      V1465   1.890   1_545  S
O1457      C1467   1.259       .  A
O1458      V2041   1.868       .  S
O1458      C1468   1.255       .  A
O1459      V2041   1.846       .  S
O1459      C1469   1.248       .  A
O1460      V1465   1.899   1_545  S
O1460      C1470   1.251       .  A
O1461      V2042   1.957   1_545  S
O1461      C1470   1.284       .  A
O1462      V1466   1.931       .  S
O1462      C1469   1.273       .  A
O1463      V1466   1.917       .  S
O1463      C1468   1.267       .  A
O1464      V2042   1.931   1_545  S
O1464      C1467   1.267       .  A
V1465      O2034   1.868       .  S
V1465      O2035   1.846       .  S
V1465      V2042   2.062       .  T
V1466      O2037   1.957       .  S
V1466      O2040   1.931       .  S
V1466      V2041   2.062       .  T
C1467      C1646   1.497       .  S
C1468      C1618   1.470       .  S
C1469      C1632   1.461       .  S
C1470      C1663   1.520       .  S
C1471      C1649   1.783       .  S
C1471      C1488   1.981   1_556  S
C1472      C1635   1.710       .  S
C1472      C1504   2.033   1_556  S
O1473      V1481   1.897       .  S
O1473      C1483   1.264       .  A
O1474      C1484   1.264       .  A
O1475      C1485   1.248       .  A
O1476      V1481   1.874       .  S
O1476      C1486   1.251       .  A
O1477      V1482   1.941       .  S
O1477      C1486   1.277       .  A
O1478      C1485   1.272       .  A
O1479      C1484   1.268       .  A
O1480      V1482   1.907       .  S
O1480      C1483   1.264       .  A
V1481      V1482   2.064       .  T
C1483      C1593   1.467       .  S
C1484      C1565   1.492       .  S
C1485      C1576   1.465       .  S
C1486      C1607   1.479       .  S
C1487      C1590   1.702   1_554  S
C1487      C1503   2.020   1_554  S
C1488      C1579   1.633   1_554  S
C1488      C1504   2.015       .  S
O1489      V1497   1.921       .  S
O1489      C1499   1.269       .  A
O1490      C1500   1.269       .  A
O1491      C1501   1.268       .  A
O1492      V1497   1.915       .  S
O1492      C1502   1.268       .  A
O1493      V1498   1.886       .  S
O1493      C1502   1.257       .  A
O1494      C1501   1.257       .  A
O1495      C1500   1.254       .  A
O1496      V1498   1.878       .  S
O1496      C1499   1.256       .  A
V1497      V1498   2.070       .  T
C1499      C1537   1.468       .  S
C1500      C1523   1.473       .  S
C1501      C1506   1.476       .  S
C1502      C1548   1.472       .  S
C1503      C1534   1.696       .  S
C1504      C1509   1.727   1_554  S
C1505      C1506   1.385       .  A
C1505      C1510   1.418       .  A
C1505      H1512   1.085       .  S
C1506      C1507   1.384       .  A
C1507      C1508   1.400       .  A
C1507      N1514   1.441       .  S
C1508      C1509   1.457       .  A
C1508      H1513   1.053       .  S
C1509      C1510   1.464       .  A
C1510      N1511   1.411       .  S
N1511      H1515   1.045       .  S
N1511      H1516   1.029       .  S
N1514      H1517   1.043       .  S
N1514      H1518   1.044       .  S
C1519      C1520   1.425       .  A
C1519      C1524   1.393       .  A
C1519      H1526   1.024       .  S
C1520      C1521   1.433       .  A
C1521      C1522   1.420       .  A
C1521      N1528   1.414       .  S
C1522      C1523   1.392       .  A
C1522      H1527   1.080       .  S
C1523      C1524   1.379       .  A
C1524      N1525   1.441       .  S
N1525      H1529   1.046       .  S
N1525      H1530   1.045       .  S
N1528      H1531   1.039       .  S
N1528      H1532   1.046       .  S
C1533      C1534   1.445       .  A
C1533      C1538   1.416       .  A
C1533      H1540   1.052       .  S
C1534      C1535   1.476       .  A
C1535      C1536   1.400       .  A
C1535      N1542   1.422       .  S
C1536      C1537   1.368       .  A
C1536      H1541   1.082       .  S
C1537      C1538   1.390       .  A
C1538      N1539   1.434       .  S
N1539      H1543   1.044       .  S
N1539      H1544   1.045       .  S
N1542      H1546   1.043       .  S
C1547      C1548   1.368       .  A
C1547      C1552   1.408       .  A
C1547      H1554   1.084       .  S
C1548      C1549   1.386       .  A
C1549      C1550   1.419       .  A
C1549      N1556   1.434       .  S
C1550      C1551   1.395       .  A
C1550      H1555   1.048       .  S
C1551      C1552   1.497       .  A
C1552      N1553   1.437       .  S
N1553      H1557   1.044       .  S
N1556      H1559   1.040       .  S
N1556      H1560   1.043       .  S
C1561      C1562   1.430       .  A
C1561      C1566   1.416       .  A
C1561      H1568   1.054       .  S
C1562      C1563   1.510       .  A
C1563      C1564   1.423       .  A
C1563      N1570   1.444       .  S
C1564      C1565   1.376       .  A
C1564      H1569   1.082       .  S
C1565      C1566   1.383       .  A
C1566      N1567   1.430       .  S
N1567      H1571   1.044       .  S
N1567      H1572   1.039       .  S
N1570      H1574   1.044       .  S
C1575      C1576   1.394       .  A
C1575      C1580   1.418       .  A
C1575      H1582   1.085       .  S
C1576      C1577   1.380       .  A
C1577      C1578   1.388       .  A
C1577      N1584   1.421       .  S
C1578      C1579   1.349       .  A
C1578      H1583   1.024       .  S
C1579      C1580   1.484       .  A
C1580      N1581   1.447       .  S
N1581      H1585   1.044   1_556  S
N1584      H1587   1.044       .  S
N1584      H1588   1.042       .  S
C1589      C1590   1.369       .  A
C1589      C1594   1.381       .  A
C1589      H1596   1.004       .  S
C1590      C1591   1.492       .  A
C1591      C1592   1.435       .  A
C1591      N1598   1.436   1_556  S
C1592      C1593   1.396       .  A
C1592      H1597   1.084       .  S
C1593      C1594   1.373       .  A
C1594      N1595   1.437       .  S
N1595      H1599   1.042       .  S
N1595      H1600   1.045       .  S
N1598      H1602   1.041       .  S
C1603      C1604   1.418       .  A
C1603      C1608   1.391       .  A
C1603      H1610   1.009       .  S
C1604      C1605   1.460       .  A
C1605      C1606   1.436       .  A
C1605      N1612   1.420       .  S
C1606      C1607   1.400       .  A
C1606      H1611   1.084       .  S
C1607      C1608   1.382       .  A
C1608      N1609   1.438       .  S
N1609      H1613   1.041       .  S
N1609      H1614   1.044       .  S
N1612      H1615   1.026       .  S
N1612      H1616   1.041       .  S
C1617      C1618   1.400       .  A
C1617      C1622   1.418       .  A
C1617      H1624   1.084       .  S
C1618      C1619   1.392       .  A
C1619      C1620   1.403       .  A
C1619      N1626   1.442       .  S
C1620      C1621   1.431       .  A
C1620      H1625   1.062       .  S
C1621      C1622   1.413       .  A
C1622      N1623   1.416       .  S
N1623      H1627   1.047       .  S
N1623      H1628   1.038       .  S
N1626      H1629   1.041       .  S
N1626      H1630   1.046       .  S
C1631      C1632   1.382       .  A
C1631      C1636   1.404       .  A
C1631      H1638   1.086       .  S
C1632      C1633   1.375       .  A
C1633      C1634   1.399       .  A
C1633      N1640   1.435       .  S
C1634      C1635   1.461       .  A
C1634      H1639   1.040       .  S
C1635      C1636   1.442       .  A
C1636      N1637   1.390       .  S
N1637      H1641   1.042       .  S
N1637      H1642   1.034       .  S
N1640      H1643   1.045       .  S
N1640      H1644   1.045       .  S
C1645      C1646   1.399       .  A
C1645      C1650   1.433       .  A
C1645      H1652   1.083       .  S
C1646      C1647   1.376       .  A
C1647      C1648   1.414       .  A
C1647      N1654   1.440       .  S
C1648      C1649   1.459       .  A
C1648      H1653   1.038       .  S
C1649      C1650   1.467       .  A
C1650      N1651   1.428       .  S
N1651      H1655   1.044       .  S
N1651      H1656   1.047       .  S
N1654      H1657   1.045       .  S
N1654      H1658   1.044       .  S
C1659      C1660   1.455       .  A
C1659      C1664   1.459       .  A
C1659      H1666   1.078       .  S
C1660      C1661   1.446       .  A
C1661      C1662   1.406       .  A
C1661      N1668   1.431       .  S
C1662      C1663   1.377       .  A
C1662      H1667   1.082       .  S
C1663      C1664   1.438       .  A
C1664      N1665   1.430       .  S
N1665      H1669   1.044       .  S
N1665      H1670   1.038   1_545  S
N1668      H1671   1.047       .  S
N1668      H1672   1.049       .  S
C1673      C1674   1.441       .  A
C1673      C1678   1.429       .  A
C1673      H1680   1.027       .  S
C1674      C1675   1.471       .  A
C1675      C1676   1.434       .  A
C1675      N1682   1.438       .  S
C1676      C1677   1.410       .  A
C1676      H1681   1.083       .  S
C1677      C1678   1.393       .  A
C1678      N1679   1.438       .  S
N1679      H1683   1.045       .  S
N1679      H1684   1.044       .  S
N1682      H1685   1.025   1_556  S
N1682      H1686   1.047       .  S
C1687      C1688   1.375       .  A
C1687      C1692   1.384       .  A
C1687      H1694   1.058       .  S
C1688      C1689   1.419       .  A
C1689      C1690   1.452       .  A
C1689      N1696   1.430       .  S
C1690      C1691   1.479       .  A
C1690      H1695   1.049       .  S
C1691      C1692   1.451       .  A
C1692      N1693   1.440       .  S
N1693      H1697   1.047       .  S
N1693      H1698   1.048       .  S
N1696      H1699   1.046       .  S
N1696      H1700   1.045       .  S
C1701      C1702   1.403       .  A
C1701      C1706   1.432       .  A
C1701      H1708   1.081       .  S
C1702      C1703   1.369       .  A
C1703      C1704   1.371       .  A
C1703      N1710   1.437       .  S
C1704      C1705   1.396       .  A
C1704      H1709   1.017       .  S
C1705      C1706   1.443       .  A
C1706      N1707   1.430       .  S
N1707      H1711   1.047       .  S
N1707      H1712   1.028       .  S
N1710      H1713   1.046       .  S
N1710      H1714   1.045       .  S
C1715      C1716   1.408       .  A
C1715      C1720   1.406       .  A
C1715      H1722   1.053       .  S
C1716      C1717   1.476       .  A
C1717      C1718   1.392       .  A
C1717      N1724   1.449       .  S
C1718      C1719   1.374       .  A
C1718      H1723   1.086       .  S
C1719      C1720   1.413       .  A
C1720      N1721   1.428       .  S
N1721      H1725   1.040       .  S
N1721      H1726   1.045       .  S
N1724      H1728   1.046       .  S
O1729      V1737   1.906       .  S
O1729      C1739   1.266       .  A
O1730      C1740   1.268       .  A
O1731      C1741   1.284       .  A
O1732      V1737   1.925       .  S
O1732      C1742   1.271       .  A
O1733      C1742   1.245       .  A
O1734      V1738   1.898   1_565  S
O1734      C1741   1.256       .  A
O1735      V1738   1.899   1_565  S
O1735      C1740   1.268       .  A
O1736      C1739   1.247       .  A
C1739      C1990   1.458       .  S
C1740      C1976   1.519       .  S
C1741      C1965   1.531       .  S
C1742      C2007   1.463       .  S
C1743      C2281   1.652       .  S
C1743      C2004   1.676   1_556  S
C1743      C2047   2.000       .  S
C1743      C2063   2.013   1_556  S
C1744      C1962   1.733       .  S
C1744      C2267   1.776       .  S
C1744      C1760   1.995       .  S
C1744      C1791   1.962       .  S
O1745      V1753   1.894       .  S
O1745      C1755   1.260       .  A
O1746      C1756   1.255       .  A
O1747      C1757   1.247       .  A
O1748      V1753   1.902       .  S
O1748      C1758   1.252       .  A
O1749      C1758   1.285       .  A
O1750      V1754   1.932       .  S
O1750      C1757   1.273       .  A
O1751      V1754   1.915       .  S
O1751      C1756   1.266       .  A
O1752      C1755   1.267       .  A
C1755      C1934   1.502       .  S
C1756      C1906   1.469       .  S
C1757      C1920   1.461       .  S
C1758      C1951   1.522       .  S
C1759      C1937   1.787       .  S
C1759      C2236   1.736       .  S
C1759      C2031   2.002       .  S
C1759      C1776   1.984       .  S
C1760      C2197   1.628       .  S
C1760      C1923   1.707       .  S
C1760      C1792   2.034       .  S
O1761      V1769   1.894       .  S
O1761      C1771   1.263       .  A
O1762      C1772   1.263       .  A
O1763      C1773   1.248       .  A
O1764      V1769   1.875       .  S
O1764      C1774   1.252       .  A
O1765      V1770   1.942       .  S
O1765      C1774   1.278       .  A
O1766      C1773   1.272       .  A
O1767      C1772   1.268       .  A
O1768      V1770   1.906       .  S
O1768      C1771   1.265       .  A
V1769      V1770   2.061       .  T
C1771      C1881   1.465       .  S
C1772      C1853   1.491       .  S
C1773      C1864   1.465       .  S
C1774      C1895   1.479       .  S
C1775      C1878   1.702       .  S
C1775      C2180   1.693       .  S
C1775      C2031   2.014       .  S
C1775      C1791   2.017       .  S
C1776      C2138   1.748       .  S
C1776      C1867   1.635       .  S
C1776      C1792   2.016       .  S
O1777      V1785   1.918       .  S
O1777      C1787   1.268       .  A
O1778      C1788   1.269       .  A
O1779      C1789   1.267       .  A
O1780      V1785   1.916       .  S
O1780      C1790   1.268       .  A
O1781      V1786   1.889       .  S
O1781      C1790   1.258       .  A
O1782      C1789   1.257       .  A
O1783      C1788   1.252       .  A
O1784      V1786   1.871       .  S
O1784      C1787   1.254       .  A
V1785      V1786   2.073       .  T
C1787      C1825   1.462       .  S
C1788      C1811   1.470       .  S
C1789      C1794   1.477       .  S
C1790      C1836   1.475       .  S
C1791      C1822   1.698       .  S
C1791      C2127   1.681       .  S
C1792      C1797   1.728       .  S
C1792      C2096   1.670       .  S
C1793      C1794   1.384       .  A
C1793      C1798   1.417       .  A
C1793      H1800   1.085       .  S
C1794      C1795   1.385       .  A
C1795      C1796   1.402       .  A
C1795      N1802   1.441       .  S
C1796      C1797   1.458       .  A
C1796      H1801   1.054       .  S
C1797      C1798   1.464       .  A
C1798      N1799   1.410       .  S
N1799      H1803   1.045       .  S
N1799      H1804   1.029       .  S
N1802      H1805   1.043       .  S
N1802      H1806   1.044       .  S
C1807      C1808   1.424       .  A
C1807      C1812   1.392       .  A
C1807      H1814   1.023       .  S
C1808      C2080   1.672       .  S
C1808      C1809   1.435       .  A
C1809      C1810   1.420       .  A
C1809      N1816   1.414       .  S
C1810      C1811   1.392       .  A
C1810      H1815   1.080       .  S
C1811      C1812   1.377       .  A
C1812      N1813   1.440       .  S
N1813      H1817   1.046       .  S
N1813      H1818   1.045       .  S
N1816      H1819   1.038       .  S
N1816      H1820   1.047       .  S
C1821      C1822   1.444       .  A
C1821      C1826   1.412       .  A
C1821      H1828   1.050       .  S
C1822      C1823   1.481       .  A
C1823      C1824   1.400       .  A
C1823      N1830   1.422       .  S
C1824      C1825   1.367       .  A
C1824      H1829   1.083       .  S
C1825      C1826   1.384       .  A
C1826      N1827   1.429       .  S
N1827      H1831   1.046       .  S
N1827      H1832   1.043       .  S
N1830      H2121   1.043       .  S
N1830      H1834   1.043       .  S
H1833      N2118   1.043       .  S
C1835      C1836   1.369       .  A
C1835      C1840   1.409       .  A
C1835      H1842   1.084       .  S
C1836      C1837   1.387       .  A
C1837      C1838   1.418       .  A
C1837      N1844   1.434       .  S
C1838      C1839   1.398       .  A
C1838      H1843   1.046       .  S
C1839      C2079   1.682   1_554  S
C1839      C1840   1.498       .  A
C1840      N1841   1.438   1_554  S
N1841      H1845   1.044       .  S
N1841      H2134   1.045   1_556  S
N1844      H1847   1.041       .  S
N1844      H1848   1.043       .  S
H1846      N2129   1.045       .  S
C1849      C1850   1.432       .  A
C1849      C1854   1.416       .  A
C1849      H1856   1.054       .  S
C1850      C2064   1.749       .  S
C1850      C1851   1.511       .  A
C1851      C1852   1.422       .  A
C1851      N1858   1.444       .  S
C1852      C1853   1.375       .  A
C1852      H1857   1.083       .  S
C1853      C1854   1.383       .  A
C1854      N1855   1.430       .  S
N1855      H1859   1.044       .  S
N1855      H1860   1.039       .  S
N1858      H2149   1.041       .  S
N1858      H1862   1.044   1_554  S
H1861      N2146   1.041       .  S
C1863      C1864   1.395       .  A
C1863      C1868   1.419       .  A
C1863      H1870   1.085       .  S
C1864      C1865   1.379       .  A
C1865      C1866   1.387       .  A
C1865      N1872   1.421       .  S
C1866      C1867   1.348       .  A
C1866      H1871   1.022       .  S
C1867      C1868   1.485       .  A
C1868      N1869   1.447       .  S
N1869      H1873   1.044       .  S
N1869      H2162   1.037       .  S
N1872      H1875   1.044       .  S
N1872      H1876   1.042       .  S
H1874      N2157   1.038   1_554  S
C1877      C1878   1.371       .  A
C1877      C1882   1.382       .  A
C1877      H1884   1.007       .  S
C1878      C1879   1.493       .  A
C1879      C1880   1.433       .  A
C1879      N1886   1.436       .  S
C1880      C1881   1.394       .  A
C1880      H1885   1.084       .  S
C1881      C1882   1.373       .  A
C1882      N1883   1.436       .  S
N1883      H1887   1.042       .  S
N1883      H1888   1.045       .  S
N1886      H2177   1.044       .  S
N1886      H1890   1.041       .  S
H1889      N2174   1.044       .  S
C1891      C1892   1.419       .  A
C1891      C1896   1.393       .  A
C1891      H1898   1.013       .  S
C1892      C2063   1.693       .  S
C1892      C1893   1.460       .  A
C1893      C1894   1.435       .  A
C1893      N1900   1.419       .  S
C1894      C1895   1.399       .  A
C1894      H1899   1.084       .  S
C1895      C1896   1.383       .  A
C1896      N1897   1.438       .  S
N1897      H1901   1.041       .  S
N1897      H1902   1.044       .  S
N1900      H1903   1.024       .  S
N1900      H1904   1.042       .  S
C1905      C1906   1.401       .  A
C1905      C1910   1.418       .  A
C1905      H1912   1.084       .  S
C1906      C1907   1.392       .  A
C1907      C1908   1.401       .  A
C1907      N1914   1.442       .  S
C1908      C1909   1.429       .  A
C1908      H1913   1.062       .  S
C1909      C2048   1.621   1_554  S
C1909      C1910   1.410       .  A
C1910      N1911   1.417       .  S
N1911      H1915   1.047       .  S
N1911      H1916   1.038       .  S
N1914      H1917   1.041       .  S
N1914      H1918   1.046       .  S
C1919      C1920   1.382       .  A
C1919      C1924   1.406       .  A
C1919      H1926   1.086       .  S
C1920      C1921   1.374       .  A
C1921      C1922   1.399       .  A
C1921      N1928   1.435       .  S
C1922      C1923   1.461       .  A
C1922      H1927   1.041       .  S
C1923      C1924   1.440       .  A
C1924      N1925   1.389       .  S
N1925      H1929   1.039       .  S
N1925      H1930   1.035       .  S
N1928      H1931   1.045       .  S
N1928      H1932   1.045       .  S
C1933      C1934   1.400       .  A
C1933      C1938   1.435       .  A
C1933      H1940   1.083       .  S
C1934      C1935   1.376       .  A
C1935      C1936   1.416       .  A
C1935      N1942   1.440       .  S
C1936      C1937   1.462       .  A
C1936      H1941   1.039       .  S
C1937      C1938   1.468       .  A
C1938      N1939   1.429       .  S
N1939      H1943   1.044       .  S
N1939      H1944   1.048       .  S
N1942      H1945   1.045       .  S
N1942      H1946   1.044       .  S
C1947      C1948   1.456       .  A
C1947      C1952   1.460       .  A
C1947      H1954   1.078   1_554  S
C1948      C2047   1.737   1_554  S
C1948      C1949   1.444       .  A
C1949      C1950   1.407       .  A
C1949      N1956   1.430       .  S
C1950      C1951   1.378       .  A
C1950      H1955   1.082       .  S
C1951      C1952   1.438       .  A
C1952      N1953   1.430       .  S
N1953      H1957   1.044       .  S
N1953      H1958   1.039       .  S
N1956      H1959   1.047       .  S
N1956      H1960   1.049       .  S
C1961      C1962   1.441       .  A
C1961      C1966   1.430       .  A
C1961      H1968   1.024       .  S
C1962      C1963   1.470       .  A
C1963      C1964   1.436       .  A
C1963      N1970   1.439       .  S
C1964      C1965   1.411       .  A
C1964      H1969   1.083       .  S
C1965      C1966   1.392       .  A
C1966      N1967   1.438       .  S
N1967      H1971   1.045       .  S
N1967      H1972   1.045       .  S
N1970      H1973   1.027       .  S
N1970      H1974   1.047       .  S
C1975      C1976   1.376       .  A
C1975      C1980   1.384       .  A
C1975      H1982   1.054       .  S
C1976      C1977   1.424       .  A
C1977      C1978   1.454       .  A
C1977      N1984   1.434       .  S
C1978      C1979   1.479       .  A
C1978      H1983   1.047       .  S
C1979      C2032   1.775       .  S
C1979      C1980   1.447       .  A
C1980      N1981   1.440       .  S
N1981      H1985   1.046       .  S
N1981      H1986   1.048       .  S
N1984      H1987   1.043       .  S
N1984      H1988   1.045       .  S
C1989      C1990   1.403       .  A
C1989      C1994   1.433       .  A
C1989      H1996   1.082       .  S
C1990      C1991   1.369       .  A
C1991      C1992   1.371       .  A
C1991      N1998   1.437       .  S
C1992      C1993   1.396       .  A
C1992      H1997   1.016       .  S
C1993      C2031   1.652       .  S
C1993      C1994   1.443       .  A
C1994      N1995   1.429       .  S
N1995      H1999   1.047       .  S
N1995      H2000   1.027       .  S
N1998      H2001   1.046       .  S
N1998      H2002   1.045       .  S
C2003      C2004   1.408       .  A
C2003      C2008   1.406       .  A
C2003      H2010   1.053       .  S
C2004      C2005   1.476       .  A
C2005      C2006   1.392       .  A
C2005      N2012   1.449       .  S
C2006      C2007   1.374       .  A
C2006      H2011   1.086       .  S
C2007      C2008   1.413       .  A
C2008      N2009   1.428       .  S
N2009      H2013   1.040       .  S
N2009      H2014   1.045       .  S
N2012      H2303   1.038       .  S
N2012      H2016   1.046       .  S
H2015      N2300   1.038       .  S
O2017      V2025   1.907       .  S
O2017      C2027   1.266       .  A
O2018      C2028   1.269       .  A
O2019      C2029   1.283       .  A
O2020      V2025   1.924       .  S
O2020      C2030   1.271       .  A
O2021      C2030   1.244       .  A
O2022      V2026   1.898   1_565  S
O2022      C2029   1.256       .  A
O2023      V2026   1.898   1_565  S
O2023      C2028   1.267       .  A
O2024      C2027   1.247       .  A
C2027      C2278   1.458       .  S
C2028      C2264   1.515       .  S
C2029      C2253   1.530       .  S
C2030      C2295   1.462       .  S
C2031      C2292   1.675       .  S
C2032      C2250   1.733   1_554  S
C2032      C2048   1.992   1_554  S
C2032      C2079   1.960   1_554  S
O2033      V2041   1.890       .  S
O2033      C2043   1.259       .  A
O2034      C2044   1.255       .  A
O2035      C2045   1.248       .  A
O2036      V2041   1.899       .  S
O2036      C2046   1.251       .  A
O2037      C2046   1.284       .  A
O2038      V2042   1.931       .  S
O2038      C2045   1.273       .  A
O2039      V2042   1.917       .  S
O2039      C2044   1.267       .  A
O2040      C2043   1.267       .  A
C2043      C2222   1.497       .  S
C2044      C2194   1.470       .  S
C2045      C2208   1.461       .  S
C2046      C2239   1.520       .  S
C2047      C2225   1.783       .  S
C2047      C2064   1.981   1_556  S
C2048      C2211   1.710       .  S
C2048      C2080   2.033   1_556  S
O2049      V2057   1.897       .  S
O2049      C2059   1.264       .  A
O2050      C2060   1.264       .  A
O2051      C2061   1.248       .  A
O2052      V2057   1.874       .  S
O2052      C2062   1.251       .  A
O2053      V2058   1.941       .  S
O2053      C2062   1.277       .  A
O2054      C2061   1.272       .  A
O2055      C2060   1.268       .  A
O2056      V2058   1.907       .  S
O2056      C2059   1.264       .  A
V2057      V2058   2.064       .  T
C2059      C2169   1.467       .  S
C2060      C2141   1.492       .  S
C2061      C2152   1.465       .  S
C2062      C2183   1.479       .  S
C2063      C2166   1.702   1_554  S
C2063      C2079   2.020   1_554  S
C2064      C2155   1.633   1_554  S
C2064      C2080   2.015       .  S
O2065      V2073   1.921       .  S
O2065      C2075   1.269       .  A
O2066      C2076   1.269       .  A
O2067      C2077   1.268       .  A
O2068      V2073   1.915       .  S
O2068      C2078   1.268       .  A
O2069      V2074   1.886       .  S
O2069      C2078   1.257       .  A
O2070      C2077   1.257       .  A
O2071      C2076   1.254       .  A
O2072      V2074   1.878       .  S
O2072      C2075   1.256       .  A
V2073      V2074   2.070       .  T
C2075      C2113   1.468       .  S
C2076      C2099   1.473       .  S
C2077      C2082   1.476       .  S
C2078      C2124   1.472       .  S
C2079      C2110   1.696       .  S
C2080      C2085   1.727   1_554  S
C2081      C2082   1.385       .  A
C2081      C2086   1.418       .  A
C2081      H2088   1.085       .  S
C2082      C2083   1.384       .  A
C2083      C2084   1.400       .  A
C2083      N2090   1.441       .  S
C2084      C2085   1.457       .  A
C2084      H2089   1.053       .  S
C2085      C2086   1.464       .  A
C2086      N2087   1.411       .  S
N2087      H2091   1.045       .  S
N2087      H2092   1.029       .  S
N2090      H2093   1.043       .  S
N2090      H2094   1.044       .  S
C2095      C2096   1.425       .  A
C2095      C2100   1.393       .  A
C2095      H2102   1.024       .  S
C2096      C2097   1.433       .  A
C2097      C2098   1.420       .  A
C2097      N2104   1.414       .  S
C2098      C2099   1.392       .  A
C2098      H2103   1.080       .  S
C2099      C2100   1.379       .  A
C2100      N2101   1.441       .  S
N2101      H2105   1.046       .  S
N2101      H2106   1.045       .  S
N2104      H2107   1.039       .  S
N2104      H2108   1.046       .  S
C2109      C2110   1.445       .  A
C2109      C2114   1.416       .  A
C2109      H2116   1.052       .  S
C2110      C2111   1.476       .  A
C2111      C2112   1.400       .  A
C2111      N2118   1.422       .  S
C2112      C2113   1.368       .  A
C2112      H2117   1.082       .  S
C2113      C2114   1.390       .  A
C2114      N2115   1.434       .  S
N2115      H2119   1.044       .  S
N2115      H2120   1.045       .  S
N2118      H2122   1.043       .  S
C2123      C2124   1.368       .  A
C2123      C2128   1.408       .  A
C2123      H2130   1.084       .  S
C2124      C2125   1.386       .  A
C2125      C2126   1.419       .  A
C2125      N2132   1.434       .  S
C2126      C2127   1.395       .  A
C2126      H2131   1.048       .  S
C2127      C2128   1.497       .  A
C2128      N2129   1.437       .  S
N2129      H2133   1.044       .  S
N2132      H2135   1.040       .  S
N2132      H2136   1.043       .  S
C2137      C2138   1.430       .  A
C2137      C2142   1.416       .  A
C2137      H2144   1.054       .  S
C2138      C2139   1.510       .  A
C2139      C2140   1.423       .  A
C2139      N2146   1.444       .  S
C2140      C2141   1.376       .  A
C2140      H2145   1.082       .  S
C2141      C2142   1.383       .  A
C2142      N2143   1.430       .  S
N2143      H2147   1.044       .  S
N2143      H2148   1.039       .  S
N2146      H2150   1.044       .  S
C2151      C2152   1.394       .  A
C2151      C2156   1.418       .  A
C2151      H2158   1.085       .  S
C2152      C2153   1.380       .  A
C2153      C2154   1.388       .  A
C2153      N2160   1.422       .  S
C2154      C2155   1.349       .  A
C2154      H2159   1.024       .  S
C2155      C2156   1.484       .  A
C2156      N2157   1.447       .  S
N2157      H2161   1.044   1_556  S
N2160      H2163   1.044       .  S
N2160      H2164   1.042       .  S
C2165      C2166   1.369       .  A
C2165      C2170   1.381       .  A
C2165      H2172   1.004       .  S
C2166      C2167   1.492       .  A
C2167      C2168   1.435       .  A
C2167      N2174   1.436   1_556  S
C2168      C2169   1.396       .  A
C2168      H2173   1.084       .  S
C2169      C2170   1.373       .  A
C2170      N2171   1.437       .  S
N2171      H2175   1.042       .  S
N2171      H2176   1.045       .  S
N2174      H2178   1.041       .  S
C2179      C2180   1.418       .  A
C2179      C2184   1.391       .  A
C2179      H2186   1.009       .  S
C2180      C2181   1.460       .  A
C2181      C2182   1.436       .  A
C2181      N2188   1.420       .  S
C2182      C2183   1.400       .  A
C2182      H2187   1.084       .  S
C2183      C2184   1.382       .  A
C2184      N2185   1.438       .  S
N2185      H2189   1.041       .  S
N2185      H2190   1.044       .  S
N2188      H2191   1.026       .  S
N2188      H2192   1.041       .  S
C2193      C2194   1.400       .  A
C2193      C2198   1.418       .  A
C2193      H2200   1.084       .  S
C2194      C2195   1.392       .  A
C2195      C2196   1.403       .  A
C2195      N2202   1.442       .  S
C2196      C2197   1.431       .  A
C2196      H2201   1.062       .  S
C2197      C2198   1.413       .  A
C2198      N2199   1.416       .  S
N2199      H2203   1.047       .  S
N2199      H2204   1.038       .  S
N2202      H2205   1.041       .  S
N2202      H2206   1.046       .  S
C2207      C2208   1.382       .  A
C2207      C2212   1.404       .  A
C2207      H2214   1.086       .  S
C2208      C2209   1.375       .  A
C2209      C2210   1.399       .  A
C2209      N2216   1.435       .  S
C2210      C2211   1.461       .  A
C2210      H2215   1.040       .  S
C2211      C2212   1.442       .  A
C2212      N2213   1.390       .  S
N2213      H2217   1.042       .  S
N2213      H2218   1.034       .  S
N2216      H2219   1.045       .  S
N2216      H2220   1.045       .  S
C2221      C2222   1.399       .  A
C2221      C2226   1.433       .  A
C2221      H2228   1.083       .  S
C2222      C2223   1.376       .  A
C2223      C2224   1.414       .  A
C2223      N2230   1.440       .  S
C2224      C2225   1.459       .  A
C2224      H2229   1.038       .  S
C2225      C2226   1.467       .  A
C2226      N2227   1.428       .  S
N2227      H2231   1.044       .  S
N2227      H2232   1.047       .  S
N2230      H2233   1.045       .  S
N2230      H2234   1.044       .  S
C2235      C2236   1.455       .  A
C2235      C2240   1.459       .  A
C2235      H2242   1.078       .  S
C2236      C2237   1.446       .  A
C2237      C2238   1.406       .  A
C2237      N2244   1.431       .  S
C2238      C2239   1.377       .  A
C2238      H2243   1.082       .  S
C2239      C2240   1.438       .  A
C2240      N2241   1.430       .  S
N2241      H2245   1.044       .  S
N2241      H2246   1.038       .  S
N2244      H2247   1.047       .  S
N2244      H2248   1.049       .  S
C2249      C2250   1.441       .  A
C2249      C2254   1.429       .  A
C2249      H2256   1.027       .  S
C2250      C2251   1.471       .  A
C2251      C2252   1.434       .  A
C2251      N2258   1.438       .  S
C2252      C2253   1.410       .  A
C2252      H2257   1.083       .  S
C2253      C2254   1.393       .  A
C2254      N2255   1.438       .  S
N2255      H2259   1.045       .  S
N2255      H2260   1.044       .  S
N2258      H2261   1.025   1_556  S
N2258      H2262   1.047       .  S
C2263      C2264   1.375       .  A
C2263      C2268   1.384       .  A
C2263      H2270   1.058       .  S
C2264      C2265   1.419       .  A
C2265      C2266   1.452       .  A
C2265      N2272   1.430       .  S
C2266      C2267   1.479       .  A
C2266      H2271   1.049       .  S
C2267      C2268   1.451       .  A
C2268      N2269   1.440       .  S
N2269      H2273   1.047       .  S
N2269      H2274   1.048       .  S
N2272      H2275   1.046       .  S
N2272      H2276   1.045       .  S
C2277      C2278   1.403       .  A
C2277      C2282   1.432       .  A
C2277      H2284   1.081       .  S
C2278      C2279   1.369       .  A
C2279      C2280   1.371       .  A
C2279      N2286   1.437       .  S
C2280      C2281   1.396       .  A
C2280      H2285   1.017       .  S
C2281      C2282   1.443       .  A
C2282      N2283   1.430       .  S
N2283      H2287   1.047       .  S
N2283      H2288   1.028       .  S
N2286      H2289   1.046       .  S
N2286      H2290   1.045       .  S
C2291      C2292   1.408       .  A
C2291      C2296   1.406       .  A
C2291      H2298   1.053       .  S
C2292      C2293   1.476       .  A
C2293      C2294   1.392       .  A
C2293      N2300   1.449       .  S
C2294      C2295   1.374       .  A
C2294      H2299   1.086       .  S
C2295      C2296   1.413       .  A
C2296      N2297   1.428       .  S
N2297      H2301   1.040       .  S
N2297      H2302   1.045       .  S
N2300      H2304   1.046       .  S
