geometry optimzed in LAMMPS
_audit_creation_date              2020-11-30 
_audit_creation_method            'lammps2cif' 
_symmetry_space_group_name_H-M    'P1' 
_symmetry_Int_Tables_number       1 
_symmetry_cell_setting            triclinic 
loop_ 
_symmetry_equiv_pos_as_xyz 
  x,y,z 
_cell_length_a                    41.79679318 
_cell_length_b                    44.849493234615295 
_cell_length_c                    32.76043616786531 
_cell_angle_alpha                 90.04085831565413 
_cell_angle_beta                  90.47452142361934 
_cell_angle_gamma                 89.89238821497926 
loop_ 
_atom_site_label 
_atom_site_type_symbol 
_atom_site_fract_x 
_atom_site_fract_y 
_atom_site_fract_z 
_atom_site_charge 
O1          O  0.47657953  0.04553713  0.95489018    -0.88200
C2          C  0.43442974  0.46218636  0.97347408     0.87800
Mg3        Mg  0.02414348  0.04494431  0.92846101     1.58100
O4          O  0.45883748  0.49904821  0.06298740    -0.87900
O5          O  0.44812968  0.05968991  0.00741107    -0.75300
C6          C  0.11084195  0.45371251  0.04209993     0.92900
O7          O  0.48726134  0.48285333  0.90514271    -0.75100
O8          O  0.11072506  0.46399778  0.00587677    -0.82600
Mg9        Mg  0.44640950  0.01492866  0.92213827     1.58000
C10         C  0.00865628  0.45242318  0.14969580     0.92800
O11         O  0.40133758  0.04335668  0.92971937    -0.80900
H12         H  0.45753314  0.03915141  0.10169266    -0.06200
C13         C  0.02066479  0.43528137  0.01801107     0.87700
O14         O  0.04228378  0.05153490  0.99410575    -0.75400
O15         O  0.43652708  0.48957519  0.97656059    -0.88100
O16         O  0.48304600  0.45078599  0.13353802    -0.80900
C17         C  0.38668761  0.45701779  0.07506891     0.92900
C18         C  0.37716182  0.04575430  0.95300923     0.92800
Mg19       Mg  0.04200961  0.48580848  0.07344722     1.58000
O20         O  0.08709029  0.45721275  0.06577052    -0.80900
O21         O  0.00156764  0.01284015  0.09037350    -0.75100
O22         O  0.38616939  0.47822348  0.04933029    -0.80900
O23         O  0.45533619  0.03858853  0.86160125    -0.82700
O24         O  0.10347393  0.02043531  0.94563217    -0.81000
C25         C  0.47207765  0.02171552  0.08852891     0.87200
O26         O  0.05205945  0.00692958  0.01834277    -0.88100
O27         O  0.01110726  0.45520576  0.04103975    -0.88200
O28         O  0.04001698  0.44062214  0.98917845    -0.75300
Mg29       Mg  0.41956059  0.01864707  0.02830814     1.58000
O30         O  0.41284380  0.44631564  0.08915859    -0.82700
H31         H  0.47624660  0.08768084  0.97487377    -0.06400
O32         O  0.03102087  0.99748221  0.93147476    -0.87900
H33         H  0.02978491  0.46036113  0.89642742    -0.06200
H34         H  0.06140981  0.04394366  0.05025489    -0.06400
C35         C  0.01541651  0.47815027  0.90901165     0.87200
C36         C  0.46720485  0.06525977  0.97837629     0.87800
C37         C  0.05272581  0.03435442  0.02198477     0.87800
H38         H  0.01167123  0.41287693  0.02183092    -0.06400
O39         O  0.44433223  0.44490103  0.00155739    -0.75400
Mg40       Mg  0.06841572  0.48175069  0.96793739     1.58000
H41         H  0.42477840  0.45267920  0.94565537    -0.06400
C42         C  0.48118550  0.04714657  0.84506641     0.92800
O43         O  0.07485504  0.05209591  0.90842686    -0.82600
C44         C  0.10180057  0.04270414  0.92155746     0.92900
O45         O  0.37760799  0.03557493  0.98927546    -0.82600
Mg46       Mg  0.46429279  0.45128767  0.06655742     1.58200
O47         O  0.00810764  0.04443407  0.86058203    -0.80900
O48         O  0.03380746  0.46207972  0.13287895    -0.82600
C49         C  0.50393638  0.09526568  0.64404508     0.45600
H50         H  0.00389566  0.07282611  0.63714837    -0.03400
C51         C  0.50674720  0.15260156  0.65424660     0.45600
H52         H  0.50721082  0.17676109  0.65920813    -0.03400
C53         C  0.50009238  0.10451518  0.68918885    -0.17100
C54         C  0.03617368  0.11136820  0.62726237    -0.16900
C55         C  0.47781973  0.11245855  0.62032722    -0.17300
C56         C  0.00428799  0.13566760  0.69431836    -0.17200
C57         C  0.03772607  0.14168760  0.63386791    -0.16800
C58         C  0.47844457  0.14292746  0.62682540    -0.17100
O59         O  0.00940236  0.28807558  0.04711981    -0.88200
C60         C  0.05112342  0.20602282  0.03985541     0.87800
Mg61       Mg  0.46084600  0.29341373  0.06737586     1.58100
O62         O  0.03319029  0.24049144  0.94594240    -0.87900
O63         O  0.04216238  0.29963181  0.99796137    -0.75300
C64         C  0.37913338  0.20041741  0.94950954     0.92900
O65         O  0.99382380  0.22994442  0.09949966    -0.75100
O66         O  0.37616460  0.21432302  0.98314839    -0.82600
Mg67       Mg  0.03744911  0.25967353  0.08634477     1.58000
C68         C  0.48764891  0.19417008  0.85171648     0.92800
O69         O  0.08355138  0.28717006  0.08042885    -0.80900
H70         H  0.03855357  0.27432203  0.90690791    -0.06200
C71         C  0.46548681  0.18237037  0.98361325     0.87700
O72         O  0.44560894  0.30048474  0.00023423    -0.75400
O73         O  0.04994037  0.23326816  0.03454773    -0.88100
O74         O  0.01317110  0.19130280  0.87715000    -0.80900
C75         C  0.10424415  0.19630677  0.94211003     0.92900
C76         C  0.10902404  0.28835066  0.05927787     0.92800
Mg77       Mg  0.44964849  0.23046971  0.92156395     1.58000
O78         O  0.40434672  0.20265227  0.92828929    -0.80900
O79         O  0.49322359  0.26003686  0.90816906    -0.75100
O80         O  0.10475511  0.21873700  0.96598626    -0.80900
O81         O  0.02473463  0.28781184  0.14130544    -0.82700
O82         O  0.38404764  0.27424487  0.03744957    -0.81000
C83         C  0.02265035  0.25795054  0.91987389     0.87200
O84         O  0.43858987  0.25593401  0.97454198    -0.88100
O85         O  0.47725383  0.20105932  0.96034206    -0.88200
O86         O  0.44414558  0.18934744  0.00945777    -0.75300
Mg87       Mg  0.07105438  0.25710985  0.98427158     1.58000
O88         O  0.07835357  0.18522567  0.92819916    -0.82700
H89         H  0.01185016  0.32929614  0.02416372    -0.06400
O90         O  0.45440297  0.24662139  0.06302370    -0.87900
H91         H  0.44943622  0.21141829  0.09985591    -0.06200
H92         H  0.43061086  0.29296557  0.94200231    -0.06400
C93         C  0.46513219  0.22840476  0.08796557     0.87200
C94         C  0.02080922  0.30667010  0.02359025     0.87800
C95         C  0.43771073  0.28334799  0.97095049     0.87800
H96         H  0.47409341  0.15963123  0.98258064    -0.06400
O97         O  0.04216751  0.18786956  0.01234002    -0.75400
Mg98       Mg  0.41602039  0.23246612  0.02353091     1.58000
H99         H  0.05894182  0.19746959  0.06913097    -0.06400
C100        C  0.49909975  0.29529969  0.15661132     0.92800
O101        O  0.40972457  0.29864324  0.08648326    -0.82600
C102        C  0.38505002  0.29483615  0.06439034     0.92900
O103        O  0.11097176  0.27567992  0.02463849    -0.82600
Mg104      Mg  0.02652244  0.19277516  0.94539334     1.58200
O105        O  0.47348098  0.29291476  0.13568524    -0.80900
O106        O  0.46094440  0.20380030  0.86445030    -0.82600
C107        C  0.50505832  0.40622119  0.35514906     0.45600
H108        H  0.00523097  0.43220584  0.35131929    -0.03400
C109        C  0.50696256  0.34841752  0.35411024     0.45600
H110        H  0.50721900  0.32381123  0.35448531    -0.03400
C111        C  0.50453597  0.39278104  0.31132286    -0.17100
C112        C  0.03395569  0.39492041  0.37336408    -0.16900
C113        C  0.47677681  0.39195846  0.37851890    -0.17300
C114        C  0.00528195  0.36275749  0.30810671    -0.17200
C115        C  0.03554348  0.36427765  0.37227378    -0.16800
C116        C  0.47673985  0.36109545  0.37530947    -0.17100
O117        O  0.27313258  0.04996140  0.53745479    -0.88200
C118        C  0.31292707  0.46730579  0.52664863     0.87800
Mg119      Mg  0.22505295  0.05578280  0.55592678     1.58100
O120        O  0.29549773  0.50212698  0.43306326    -0.87900
O121        O  0.30441991  0.06257078  0.48729452    -0.75300
C122        C  0.14039298  0.46274405  0.43938706     0.92900
O123        O  0.25837806  0.49012679  0.58887304    -0.75100
O124        O  0.13907993  0.47441208  0.47485845    -0.82600
Mg125      Mg  0.30113375  0.02085364  0.57558411     1.58000
C126        C  0.24956814  0.45387842  0.34221788     0.92800
O127        O  0.34609612  0.04858339  0.56911583    -0.80900
H128        H  0.29858059  0.03853780  0.39728169    -0.06200
C129        C  0.22835929  0.44282803  0.47272878     0.87700
O130        O  0.20806229  0.06232494  0.48989673    -0.75400
O131        O  0.31212056  0.49460086  0.52165938    -0.88100
O132        O  0.27534082  0.45327158  0.36328286    -0.80900
C133        C  0.36561048  0.45651274  0.43219655     0.92900
C134        C  0.37120730  0.04938237  0.54764843     0.92800
Mg135      Mg  0.21157135  0.49123521  0.41228979     1.58000
O136        O  0.16567207  0.46377384  0.41803811    -0.80900
O137        O  0.25348909  0.02208869  0.40045656    -0.75100
O138        O  0.36562991  0.47935596  0.45522531    -0.80900
O139        O  0.29062682  0.04724494  0.63196407    -0.82700
O140        O  0.14592781  0.03025885  0.53985342    -0.81000
C141        C  0.28299430  0.02184356  0.41011973     0.87200
O142        O  0.19830028  0.01751615  0.46667447    -0.88100
O143        O  0.23971099  0.46165678  0.44951762    -0.88200
O144        O  0.20763785  0.44969597  0.49924621    -0.75300
Mg145      Mg  0.33230834  0.01977811  0.47287669     1.58000
O146        O  0.34022415  0.44595399  0.41615170    -0.82700
H147        H  0.27511709  0.09172208  0.51624340    -0.06400
O148        O  0.21796719  0.00817717  0.55370698    -0.87900
H149        H  0.21337467  0.47338293  0.59170506    -0.06200
H150        H  0.18926447  0.05411704  0.43373370    -0.06400
C151        C  0.22899728  0.48997547  0.57868620     0.87200
C152        C  0.28398412  0.06910262  0.51430181     0.87800
C153        C  0.19767139  0.04487277  0.46235679     0.87800
H154        H  0.23692262  0.42009459  0.47116080    -0.06400
O155        O  0.30375750  0.44938362  0.49896667    -0.75400
Mg156      Mg  0.17930775  0.49195146  0.51569229     1.58000
H157        H  0.32055946  0.45850695  0.55586751    -0.06400
C158        C  0.26390671  0.05601759  0.64544716     0.92800
O159        O  0.17526292  0.06251219  0.57538668    -0.82600
C160        C  0.14843671  0.05189920  0.56501993     0.92900
O161        O  0.37258993  0.03753972  0.51245931    -0.82600
Mg162      Mg  0.28844139  0.45452756  0.43202561     1.58200
O163        O  0.23861421  0.05570037  0.62362435    -0.80900
O164        O  0.22356427  0.46446577  0.35604153    -0.82600
C165        C  0.24696214  0.34652580  0.14179253     0.45600
H166        H  0.24883409  0.32190716  0.14039918    -0.03400
C167        C  0.24445211  0.40424378  0.14682798     0.45600
H168        H  0.24445559  0.42879278  0.14865708    -0.03400
C169        C  0.25091950  0.35800973  0.18598291    -0.17100
C170        C  0.27392069  0.36238576  0.11759204    -0.16900
C171        C  0.21435399  0.35993576  0.12632800    -0.17300
C172        C  0.24725580  0.38850782  0.18898999    -0.17200
C173        C  0.27272926  0.39304882  0.12146458    -0.16800
C174        C  0.21441595  0.39099174  0.12614129    -0.17100
O175        O  0.23849222  0.29188498  0.44984595    -0.88200
C176        C  0.19963349  0.20954841  0.46255053     0.87800
Mg177      Mg  0.28782829  0.29780756  0.43504950     1.58100
O178        O  0.21504099  0.24789523  0.55422062    -0.87900
O179        O  0.20534597  0.30460675  0.49811847    -0.75300
C180        C  0.36940762  0.20761281  0.56030109     0.92900
O181        O  0.25653604  0.23205479  0.40241493    -0.75100
O182        O  0.37220715  0.21930182  0.52505007    -0.82600
Mg183      Mg  0.21182646  0.26153439  0.41218565     1.58000
C184        C  0.25606854  0.20184695  0.65145170     0.92800
O185        O  0.16492552  0.28912253  0.41642635    -0.80900
H186        H  0.20780363  0.28289064  0.59085630    -0.06200
C187        C  0.28361804  0.18739415  0.52259126     0.87700
O188        O  0.30073105  0.30526766  0.50262250    -0.75400
O189        O  0.19920663  0.23701250  0.46575573    -0.88100
O190        O  0.23241550  0.20267550  0.62704918    -0.80900
C191        C  0.14452275  0.20332368  0.56093083     0.92900
C192        C  0.13973571  0.29133552  0.43821863     0.92800
Mg193      Mg  0.29739706  0.23693601  0.58313503     1.58000
O194        O  0.34371790  0.20981611  0.58067390    -0.80900
O195        O  0.25311890  0.26657180  0.59269727    -0.75100
O196        O  0.14332125  0.22429082  0.53471844    -0.80900
O197        O  0.22545475  0.28681818  0.35440451    -0.82700
O198        O  0.36721832  0.27415287  0.46192623    -0.81000
C199        C  0.22435990  0.26622726  0.57985947     0.87200
O200        O  0.31052406  0.26146071  0.52957146    -0.88100
O201        O  0.27130657  0.20684958  0.54406377    -0.88200
O202        O  0.30511983  0.19364600  0.49688773    -0.75300
Mg203      Mg  0.17728258  0.26228583  0.51441352     1.58000
O204        O  0.17077927  0.19360158  0.57535217    -0.82700
H205        H  0.23472242  0.33387413  0.46977744    -0.06400
O206        O  0.29541260  0.25049790  0.44005944    -0.87900
H207        H  0.30173959  0.21534520  0.40340887    -0.06200
H208        H  0.31566095  0.29932467  0.56114499    -0.06400
C209        C  0.28550193  0.23216480  0.41472368     0.87200
C210        C  0.22643275  0.31111312  0.47194277     0.87800
C211        C  0.30966886  0.28894486  0.53228260     0.87800
H212        H  0.27521116  0.16467523  0.52488315    -0.06400
O213        O  0.20873205  0.19288965  0.49174922    -0.75400
Mg214      Mg  0.33318847  0.23604494  0.48143303     1.58000
H215        H  0.19316812  0.19949731  0.43363819    -0.06400
C216        C  0.25234252  0.29583662  0.34129172     0.92800
O217        O  0.33981021  0.30442643  0.42117886    -0.82600
C218        C  0.36634221  0.29524470  0.43594507     0.92900
O219        O  0.13805251  0.27920237  0.47310551    -0.82600
Mg220      Mg  0.22217393  0.20070300  0.55891671     1.58200
O221        O  0.27686084  0.29698872  0.36491563    -0.80900
O222        O  0.28356075  0.21080072  0.64029871    -0.82600
C223        C  0.24640689  0.15282886  0.85133655     0.45600
H224        H  0.24900126  0.17705635  0.85285347    -0.03400
C225        C  0.24233474  0.09504877  0.84681829     0.45600
H226        H  0.24104278  0.07054490  0.84637774    -0.03400
C227        C  0.24888805  0.14046204  0.80737760    -0.17100
C228        C  0.27259111  0.13652661  0.87589814    -0.16900
C229        C  0.21455094  0.14094401  0.86816888    -0.17300
C230        C  0.24642170  0.10973413  0.80482036    -0.17200
C231        C  0.27093394  0.10594687  0.87283025    -0.16800
C232        C  0.21221821  0.11023773  0.86460759    -0.17100
C233        C  0.22492392  0.15669307  0.74206824    -0.05600
C234        C  0.24999382  0.15996775  0.77032437     0.00300
C235        C  0.27623928  0.17854236  0.76044235    -0.08300
C236        C  0.27655080  0.19255115  0.72193865    -0.05700
C237        C  0.25169994  0.18879987  0.69311991     0.00300
C238        C  0.22474260  0.17098705  0.70399817    -0.08200
C239        C  0.19581709  0.16621246  0.67612285     0.62200
H240        H  0.20541640  0.14207491  0.75014040     0.12900
H241        H  0.29674674  0.20631465  0.71379016     0.12900
C242        C  0.30474695  0.18234299  0.78896899     0.62400
F243        F  0.17281736  0.14827778  0.69378874    -0.22800
F244        F  0.20513675  0.15251848  0.64026986    -0.20100
F245        F  0.18148802  0.19335779  0.66772640    -0.19800
F246        F  0.31663605  0.15482483  0.80010251    -0.19800
F247        F  0.29575328  0.19790189  0.82337775    -0.20100
F248        F  0.32937827  0.19792627  0.77078929    -0.22800
C249        C  0.23576018  0.31367553  0.22797179    -0.05600
C250        C  0.25692350  0.33753603  0.22185178     0.00300
C251        C  0.28104924  0.34262071  0.25183760    -0.08300
C252        C  0.27896832  0.32818571  0.28984151    -0.05700
C253        C  0.25501521  0.30712973  0.29823370     0.00300
C254        C  0.23422954  0.29835234  0.26564952    -0.08200
C255        C  0.20998950  0.27345733  0.27032848     0.62200
H256        H  0.21847543  0.30873408  0.20411102     0.12900
H257        H  0.29633449  0.33377956  0.31338234     0.12900
C258        C  0.31047847  0.36145961  0.24479576     0.62400
F259        F  0.19702074  0.26498644  0.23307032    -0.22800
F260        F  0.18517746  0.28282206  0.29490952    -0.20100
F261        F  0.22460566  0.24866316  0.28738495    -0.19800
F262        F  0.31065019  0.38550378  0.27123171    -0.19800
F263        F  0.31235574  0.37160276  0.20531542    -0.20100
F264        F  0.33745681  0.34435386  0.25219660    -0.22800
C265        C  0.22700391  0.41556346  0.29744554    -0.05600
C266        C  0.24871244  0.43895628  0.30207811     0.00300
C267        C  0.26799786  0.44731175  0.26888425    -0.08300
C268        C  0.26556292  0.43086696  0.23237453    -0.05700
C269        C  0.24577618  0.40563030  0.22846746     0.00300
C270        C  0.22455461  0.39897627  0.26128182    -0.08200
C271        C  0.19728319  0.37667123  0.26054832     0.62200
H272        H  0.21143076  0.41015266  0.32277989     0.12900
H273        H  0.27964898  0.43770657  0.20647727     0.12900
C274        C  0.29068319  0.47357421  0.27196313     0.62400
F275        F  0.20169488  0.35616828  0.29159341    -0.22800
F276        F  0.19422820  0.36147495  0.22449752    -0.20100
F277        F  0.16877232  0.39159374  0.26712316    -0.19800
F278        F  0.31497736  0.46705646  0.29944068    -0.19800
F279        F  0.27430348  0.49857899  0.28511305    -0.20100
F280        F  0.30438966  0.48020432  0.23472831    -0.22800
C281        C  0.23653207  0.05764388  0.71143798    -0.05600
C282        C  0.26176881  0.06759984  0.68735028     0.00300
C283        C  0.28239353  0.09001987  0.70229400    -0.08300
C284        C  0.27691441  0.10160382  0.74119245    -0.05700
C285        C  0.25103619  0.09271933  0.76545202     0.00300
C286        C  0.23059228  0.06962454  0.75034510    -0.08200
C287        C  0.20165592  0.05821373  0.77293545     0.62200
H288        H  0.22120632  0.04033827  0.69906171     0.12900
H289        H  0.29290295  0.11846213  0.75271355     0.12900
C290        C  0.30939089  0.10265636  0.67697346     0.62400
F291        F  0.18176698  0.04123819  0.74817033    -0.22800
F292        F  0.18405229  0.08192768  0.78633752    -0.20100
F293        F  0.21089749  0.04056073  0.80541773    -0.19800
F294        F  0.29782139  0.11158811  0.63922207    -0.19800
F295        F  0.33264916  0.08115322  0.67194668    -0.20100
F296        F  0.32359747  0.12712086  0.69545778    -0.22800
C297        C  0.11951095  0.33207941  0.39477899    -0.05600
C298        C  0.11231087  0.30945547  0.42258651     0.00300
C299        C  0.07981047  0.30484425  0.43352156    -0.08300
C300        C  0.05606492  0.32329216  0.41592869    -0.05700
C301        C  0.06328173  0.34609064  0.38814067     0.00300
C302        C  0.09590587  0.34977972  0.37622973    -0.08200
C303        C  0.10811345  0.36949554  0.34203630     0.62200
H304        H  0.14425326  0.33556934  0.38624987     0.12900
H305        H  0.03140375  0.32046665  0.42457627     0.12900
C306        C  0.06976144  0.28058426  0.46314522     0.62400
F307        F  0.12548075  0.35229554  0.31490420    -0.22800
F308        F  0.12835699  0.39087762  0.35813117    -0.20100
F309        F  0.08410498  0.38310670  0.31998183    -0.19800
F310        F  0.08142985  0.28691944  0.50180523    -0.19800
F311        F  0.08138867  0.25328398  0.45030879    -0.20100
F312        F  0.03682389  0.27827558  0.46580599    -0.22800
C313        C  0.45396712  0.31937626  0.41739965    -0.05600
C314        C  0.44921106  0.34116220  0.38703681     0.00300
C315        C  0.41809161  0.34409817  0.36992006    -0.08300
C316        C  0.39251760  0.32932203  0.38788459    -0.05700
C317        C  0.39641261  0.30944523  0.42054848     0.00300
C318        C  0.42807757  0.30386281  0.43537857    -0.08200
C319        C  0.43469381  0.28369666  0.47174135     0.62200
H320        H  0.47792554  0.31616261  0.42906677     0.12900
H321        H  0.36885136  0.33330608  0.37528542     0.12900
C322        C  0.41047196  0.36142492  0.33172798     0.62400
F323        F  0.46675362  0.28356126  0.48273380    -0.22800
F324        F  0.42606129  0.25471158  0.46250752    -0.20100
F325        F  0.41755779  0.29362003  0.50507929    -0.19800
F326        F  0.38689334  0.34732833  0.30898656    -0.19800
F327        F  0.43682252  0.36308790  0.30721791    -0.20100
F328        F  0.39946451  0.38942493  0.34229360    -0.22800
C329        C  0.40517692  0.41650171  0.44348730    -0.05600
C330        C  0.39634415  0.44246891  0.42280689     0.00300
C331        C  0.41781700  0.45564948  0.39538890    -0.08300
C332        C  0.44541953  0.43975501  0.38479817    -0.05700
C333        C  0.45202689  0.41095350  0.40027112     0.00300
C334        C  0.43420904  0.40195190  0.43514679    -0.08200
C335        C  0.44667171  0.38180043  0.46875195     0.62200
H336        H  0.39021751  0.40860408  0.46811801     0.12900
H337        H  0.46070029  0.44963824  0.36238166     0.12900
C338        C  0.41113223  0.48608397  0.37678519     0.62400
F339        F  0.45031831  0.39846794  0.50403544    -0.22800
F340        F  0.97560914  0.36914358  0.45530152    -0.20100
F341        F  0.42477199  0.35954363  0.47645841    -0.19800
F342        F  0.40989707  0.50729520  0.40738461    -0.19800
F343        F  0.38218613  0.48560365  0.35603050    -0.20100
F344        F  0.43462655  0.49459692  0.34966566    -0.22800
C345        C  0.07573918  0.43403375  0.36621949    -0.05600
C346        C  0.05862883  0.41503917  0.39205211     0.00300
C347        C  0.06459945  0.41657338  0.43460075    -0.08300
C348        C  0.09175858  0.43202239  0.44879898    -0.05700
C349        C  0.11164640  0.44772944  0.42210560     0.00300
C350        C  0.10265086  0.45002870  0.38021610    -0.08200
C351        C  0.12126063  0.46890745  0.35007100     0.62200
H352        H  0.06887433  0.43498073  0.33429920     0.12900
H353        H  0.09753180  0.43211558  0.48108257     0.12900
C354        C  0.04048355  0.40519625  0.46495901     0.62400
F355        F  0.10500807  0.47208942  0.31333114    -0.22800
F356        F  0.15040863  0.45558830  0.34201133    -0.20100
F357        F  0.12623773  0.49713535  0.36594024    -0.19800
F358        F  0.03693690  0.37482580  0.46130195    -0.19800
F359        F  0.51182057  0.41791485  0.46027373    -0.20100
F360        F  0.04948424  0.41129600  0.50485033    -0.22800
C361        C  0.17773813  0.14814311  0.92685191    -0.05600
C362        C  0.18980614  0.15972767  0.88996801     0.00300
C363        C  0.17598025  0.18674934  0.87442865    -0.08300
C364        C  0.14840205  0.19811349  0.89344835    -0.05700
C365        C  0.13483632  0.18432771  0.92732357     0.00300
C366        C  0.15014783  0.15966454  0.94538584    -0.08200
C367        C  0.13709398  0.14563210  0.98385772     0.62200
H368        H  0.18953160  0.12905336  0.94045535     0.12900
H369        H  0.13663789  0.21788636  0.88164846     0.12900
C370        C  0.18901296  0.20416312  0.83838720     0.62400
F371        F  0.15554744  0.12172572  0.99681869    -0.22800
F372        F  0.10630281  0.13553055  0.97676170    -0.20100
F373        F  0.13662486  0.16666719  0.01474843    -0.19800
F374        F  0.16813147  0.22630173  0.82546927    -0.19800
F375        F  0.19379373  0.18565515  0.80568844    -0.20100
F376        F  0.21728533  0.21804278  0.84917157    -0.22800
C377        C  0.32095881  0.18894570  0.94544794    -0.05600
C378        C  0.35232142  0.18194325  0.93362087     0.00300
C379        C  0.35722368  0.15777725  0.90643504    -0.08300
C380        C  0.33060014  0.14487058  0.88730302    -0.05700
C381        C  0.29917458  0.15259891  0.89753882     0.00300
C382        C  0.29425525  0.17385534  0.92903646    -0.08200
C383        C  0.26152311  0.17993569  0.94680715     0.62200
H384        H  0.31737166  0.20664016  0.96745628     0.12900
H385        H  0.33439533  0.12819084  0.86412567     0.12900
C386        C  0.39000073  0.14443710  0.89840169     0.62400
F387        F  0.26362616  0.19534542  0.98336440    -0.22800
F388        F  0.24611451  0.15332444  0.95444929    -0.20100
F389        F  0.24359254  0.19696744  0.92012552    -0.19800
F390        F  0.40724016  0.14193369  0.93448805    -0.19800
F391        F  0.40647092  0.16208430  0.87121064    -0.20100
F392        F  0.38746705  0.11610664  0.88194516    -0.22800
C393        C  0.19282390  0.31305751  0.09332304    -0.05600
C394        C  0.18624285  0.34039642  0.11304986     0.00300
C395        C  0.15318476  0.34749715  0.11909191    -0.08300
C396        C  0.12960219  0.33103084  0.09843355    -0.05700
C397        C  0.13663273  0.30536222  0.07619323     0.00300
C398        C  0.16871196  0.29523652  0.07516498    -0.08200
C399        C  0.17731010  0.26522382  0.05662231     0.62200
H400        H  0.21707804  0.30530230  0.09212108     0.12900
H401        H  0.10473249  0.33763379  0.10152043     0.12900
C402        C  0.13965939  0.36948028  0.14943506     0.62400
F403        F  0.20886950  0.25755326  0.06412677    -0.22800
F404        F  0.17263831  0.26602010  0.01481164    -0.20100
F405        F  0.15839109  0.24315069  0.07328181    -0.19800
F406        F  0.12109623  0.39024936  0.12896999    -0.19800
F407        F  0.16224194  0.38417872  0.17189855    -0.20100
F408        F  0.12058841  0.35412836  0.17661155    -0.22800
C409        C  0.32630578  0.30621032  0.05820206    -0.05600
C410        C  0.35701030  0.31460043  0.07153692     0.00300
C411        C  0.35994852  0.34188753  0.09286799    -0.08300
C412        C  0.33275969  0.35364115  0.11159088    -0.05700
C413        C  0.30175176  0.34581277  0.09887609     0.00300
C414        C  0.29908731  0.32353832  0.06791296    -0.08200
C415        C  0.27003558  0.31899613  0.04097260     0.62200
H416        H  0.32370056  0.28714754  0.03812157     0.12900
H417        H  0.33627258  0.37042631  0.13437144     0.12900
C418        C  0.38875984  0.36245598  0.09086202     0.62400
F419        F  0.27872116  0.32318269  0.00070128    -0.22800
F420        F  0.24570772  0.33883129  0.04923159    -0.20100
F421        F  0.25916897  0.29014654  0.04522966    -0.19800
F422        F  0.37976265  0.38767062  0.06970999    -0.19800
F423        F  0.41481692  0.35096114  0.07057980    -0.20100
F424        F  0.39783755  0.37079645  0.12972979    -0.22800
C425        C  0.01870532  0.30292361  0.22429988    -0.05600
C426        C  0.49836842  0.31074631  0.19676838     0.00300
C427        C  0.48054035  0.33712996  0.20344369    -0.08300
C428        C  0.48326902  0.35175880  0.24121991    -0.05700
C429        C  0.00310357  0.34350764  0.27010010     0.00300
C430        C  0.02265034  0.31798522  0.26163155    -0.08200
C431        C  0.04918804  0.30693628  0.28933550     0.62200
H432        H  0.03338258  0.28363311  0.21756617     0.12900
H433        H  0.46798868  0.37056202  0.24679077     0.12900
C434        C  0.45891660  0.35029820  0.17078604     0.62400
F435        F  0.07122117  0.28952271  0.26873370    -0.22800
F436        F  0.03696437  0.29005117  0.32074880    -0.20100
F437        F  0.06551841  0.33078523  0.30435722    -0.19800
F438        F  0.43339609  0.33128432  0.16429277    -0.19800
F439        F  0.47568309  0.35406288  0.13490127    -0.20100
F440        F  0.44699269  0.37790866  0.18197772    -0.22800
C441        C  0.06853570  0.15836719  0.57366040    -0.05600
C442        C  0.06362139  0.16078432  0.61603475     0.00300
C443        C  0.08419727  0.17962997  0.63930560    -0.08300
C444        C  0.10933322  0.19428314  0.61924696    -0.05700
C445        C  0.11475961  0.19065223  0.57741667     0.00300
C446        C  0.09376911  0.17297085  0.55389606    -0.08200
C447        C  0.09870634  0.16882694  0.50847456     0.62200
H448        H  0.05241299  0.14455898  0.55603756     0.12900
H449        H  0.12576038  0.20823884  0.63634567     0.12900
C450        C  0.08186899  0.18268946  0.68527489     0.62400
F451        F  0.12871889  0.15687909  0.50162848    -0.22800
F452        F  0.09626004  0.19608359  0.48902608    -0.20100
F453        F  0.07616725  0.14985704  0.49142739    -0.19800
F454        F  0.10596211  0.20037834  0.70146417    -0.19800
F455        F  0.57140516  0.16135975  0.70530584    -0.20100
F456        F  0.05309759  0.19536052  0.69614746    -0.22800
C457        C  0.42766588  0.20405595  0.57467487    -0.05600
C458        C  0.39704160  0.19180286  0.57907120     0.00300
C459        C  0.39339610  0.16528603  0.60191308    -0.08300
C460        C  0.42033168  0.15295561  0.62134591    -0.05700
C461        C  0.45146566  0.16333173  0.61404996     0.00300
C462        C  0.45523294  0.19021589  0.59123267    -0.08200
C463        C  0.48740420  0.20500519  0.58401956     0.62200
H464        H  0.42978530  0.22478929  0.55798560     0.12900
H465        H  0.41737198  0.13367048  0.64078236     0.12900
C466        C  0.36191321  0.14847045  0.60312136     0.62400
F467        F  0.48546543  0.22654403  0.55380559    -0.22800
F468        F  0.00949964  0.18900510  0.57354073    -0.20100
F469        F  0.49778268  0.21884096  0.61937027    -0.19800
F470        F  0.34953152  0.14560196  0.56400329    -0.19800
F471        F  0.34029033  0.16348789  0.62732890    -0.20100
F472        F  0.36589500  0.12002836  0.61873271    -0.22800
C473        C  0.43730096  0.07299701  0.62017338    -0.05600
C474        C  0.45218833  0.09576212  0.59789912     0.00300
C475        C  0.44137012  0.10176646  0.55721413    -0.08300
C476        C  0.41496774  0.08585022  0.54190399    -0.05700
C477        C  0.39964618  0.06404693  0.56502107     0.00300
C478        C  0.41154498  0.05665019  0.60428542    -0.08200
C479        C  0.39786660  0.03099007  0.62894114     0.62200
H480        H  0.44547107  0.06854902  0.65102076     0.12900
H481        H  0.40594216  0.09073556  0.51148025     0.12900
C482        C  0.45607911  0.12384349  0.52775422     0.62400
F483        F  0.41619897  0.02490551  0.66334136    -0.22800
F484        F  0.39690017  0.00545826  0.60525640    -0.20100
F485        F  0.36733801  0.03779253  0.64167345    -0.19800
F486        F  0.46494023  0.10897527  0.49256184    -0.19800
F487        F  0.48274751  0.13790981  0.54304618    -0.20100
F488        F  0.43363872  0.14531131  0.51745452    -0.22800
C489        C  0.09200518  0.09474422  0.63375593    -0.05600
C490        C  0.06352588  0.09375469  0.61095239     0.00300
C491        C  0.06241168  0.07673254  0.57432988    -0.08300
C492        C  0.09087259  0.06380867  0.56021253    -0.07300
C493        C  0.11941360  0.06534956  0.58276795     0.00300
C494        C  0.11941163  0.07916717  0.62183312    -0.08200
C495        C  0.14680100  0.07562987  0.65247385     0.62200
H496        H  0.09219489  0.10699672  0.66219660     0.12900
H497        H  0.09106187  0.05223649  0.53120903     0.12900
C498        C  0.03217030  0.07272288  0.54911822     0.62400
F499        F  0.13813765  0.08494958  0.69117288    -0.22800
F500        F  0.17294436  0.09229783  0.64083931    -0.20100
F501        F  0.15537506  0.04586675  0.65523371    -0.19800
F502        F  0.03778515  0.05783201  0.51283087    -0.19800
F503        F  0.01973303  0.10013733  0.53946416    -0.20100
F504        F  0.00998795  0.05634520  0.57044796    -0.22800
C505        C  0.47617168  0.17216994  0.73879778    -0.05600
C506        C  0.00191336  0.15057292  0.73515772     0.00300
C507        C  0.02152140  0.14324809  0.76939732    -0.08300
C508        C  0.01549930  0.15696163  0.80693355    -0.05700
C509        C  0.49034029  0.18025129  0.81040145     0.00300
C510        C  0.47047480  0.18703249  0.77613042    -0.08200
C511        C  0.44333773  0.20951703  0.77842607     0.62200
H512        H  0.46097615  0.17663540  0.71255518     0.12900
H513        H  0.03012841  0.15053962  0.83300465     0.12900
C514        C  0.05028336  0.12269151  0.76915044     0.62400
F515        F  0.42991987  0.21515180  0.74039909    -0.22800
F516        F  0.45451500  0.23626667  0.79392058    -0.20100
F517        F  0.41947061  0.19861976  0.80323853    -0.19800
F518        F  0.07673640  0.13886930  0.78151662    -0.19800
F519        F  0.05681405  0.11067886  0.73159470    -0.20100
F520        F  0.04564732  0.09964823  0.79649357    -0.22800
C521        C  0.29841432  0.08840592  0.93593040    -0.05600
C522        C  0.29474375  0.08563002  0.89338575     0.00300
C523        C  0.31722692  0.06803324  0.87154327    -0.08300
C524        C  0.34247171  0.05447002  0.89311529    -0.05700
C525        C  0.34741476  0.05892896  0.93508366     0.00300
C526        C  0.32488672  0.07615511  0.95710574    -0.08200
C527        C  0.32950493  0.08312155  0.00204846     0.62200
H528        H  0.28118508  0.10191944  0.95212974     0.12900
H529        H  0.35952410  0.04085303  0.87677333     0.12900
C530        C  0.31673002  0.06525653  0.82544301     0.62400
F531        F  0.30739873  0.10379448  0.01574012    -0.22800
F532        F  0.35971109  0.09484088  0.00863051    -0.20100
F533        F  0.32598240  0.05738473  0.02474131    -0.19800
F534        F  0.31921888  0.09321541  0.80852575    -0.19800
F535        F  0.28886657  0.05161624  0.81268978    -0.20100
F536        F  0.34199987  0.04841274  0.81084614    -0.22800
C537        C  0.12676360  0.08158387  0.87889366    -0.05600
C538        C  0.13135434  0.05861634  0.90756839     0.00300
C539        C  0.16322233  0.05216871  0.92088354    -0.08300
C540        C  0.18865986  0.06926474  0.90508823    -0.05700
C541        C  0.18365182  0.09232249  0.87676619     0.00300
C542        C  0.15198238  0.09807515  0.86262052    -0.08200
C543        C  0.14246592  0.12008301  0.82941995     0.62200
H544        H  0.10282581  0.08668043  0.86794355     0.12900
H545        H  0.21293244  0.06521986  0.91553056     0.12900
C546        C  0.17088599  0.02789093  0.95182047     0.62400
F547        F  0.12573961  0.10500286  0.79921700    -0.22800
F548        F  0.16794679  0.13376795  0.81104365    -0.20100
F549        F  0.12276910  0.14174972  0.84574769    -0.19800
F550        F  0.15657435  0.49696810  0.92822096    -0.19800
F551        F  0.15519153  0.03366902  0.98799002    -0.20100
F552        F  0.20331450  0.02623273  0.96059558    -0.22800
C553        C  0.00501413  0.04440367  0.77065596    -0.05600
C554        C  0.48083435  0.05760507  0.80184323     0.00300
C555        C  0.45995966  0.08033346  0.78760117    -0.08300
C556        C  0.46509936  0.09271537  0.74861704    -0.05700
C557        C  0.49066634  0.08366556  0.72364282     0.00300
C558        C  0.01011227  0.05748237  0.73201698    -0.08200
C559        C  0.03384415  0.04259272  0.70368656     0.62200
H560        H  0.01929506  0.02551731  0.78048315     0.12900
H561        H  0.45009840  0.11090550  0.73812104     0.12900
C562        C  0.43361187  0.09270529  0.81436440     0.62400
F563        F  0.05151747  0.02066610  0.72332307    -0.22800
F564        F  0.05518944  0.06298074  0.68884514    -0.20100
F565        F  0.01758147  0.02924726  0.67168706    -0.19800
F566        F  0.44662867  0.10283205  0.85076856    -0.19800
F567        F  0.41146977  0.07060579  0.82223483    -0.20100
F568        F  0.41760410  0.11625902  0.79599726    -0.22800
C569        C  0.32031593  0.42395360  0.13925116    -0.05600
C570        C  0.29891211  0.41392385  0.10896941     0.00300
C571        C  0.30392814  0.42278876  0.06810483    -0.08300
C572        C  0.33234105  0.43805846  0.05842990    -0.05700
C573        C  0.35566488  0.44450903  0.08834709     0.00300
C574        C  0.34888591  0.43873179  0.12980515    -0.08200
C575        C  0.37185308  0.44753121  0.16393406     0.62200
H576        H  0.31624403  0.41744362  0.17051648     0.12900
H577        H  0.33730433  0.44372846  0.02695397     0.12900
C578        C  0.27949366  0.41619541  0.03503100     0.62400
F579        F  0.35756499  0.44573963  0.20182724    -0.22800
F580        F  0.38200201  0.47660471  0.15857492    -0.20100
F581        F  0.39807287  0.42872289  0.16401052    -0.19800
F582        F  0.24962756  0.42581174  0.04724274    -0.19800
F583        F  0.27860333  0.38598718  0.02766631    -0.20100
F584        F  0.28674998  0.43043558  0.99879945    -0.22800
C585        C  0.18056092  0.40057215  0.06408352    -0.05600
C586        C  0.19009239  0.41008726  0.10348210     0.00300
C587        C  0.17552698  0.43650279  0.11963401    -0.08300
C588        C  0.15077084  0.45025130  0.09715677    -0.05700
C589        C  0.13988720  0.43928221  0.05960262     0.00300
C590        C  0.15551433  0.41451921  0.04199733    -0.08200
C591        C  0.14508494  0.40231922  0.00083418     0.62200
H592        H  0.19261385  0.38153181  0.05089329     0.12900
H593        H  0.13927954  0.47007747  0.10907747     0.12900
C594        C  0.18491758  0.45150437  0.15966626     0.62400
F595        F  0.16228362  0.37712745  0.99012801    -0.22800
F596        F  0.14977087  0.42366474  0.97105805    -0.20100
F597        F  0.11302121  0.39478811  0.00189583    -0.19800
F598        F  0.21025644  0.47061088  0.15299734    -0.19800
F599        F  0.19299697  0.43114777  0.18926662    -0.20100
F600        F  0.15988431  0.46817028  0.17525509    -0.22800
C601        C  0.03368122  0.41074166  0.24710131    -0.05600
C602        C  0.50601902  0.41211445  0.27359410     0.00300
C603        C  0.47952958  0.42794300  0.25602326    -0.08300
C604        C  0.48277480  0.44149085  0.21784372    -0.05700
C605        C  0.51107019  0.44005250  0.19569225     0.00300
C606        C  0.03665570  0.42439963  0.20847164    -0.08200
C607        C  0.06710578  0.41960469  0.18448141     0.62200
H608        H  0.05312130  0.39746934  0.25923031     0.12900
H609        H  0.46217686  0.45269254  0.20444103     0.12900
C610        C  0.44642248  0.43005485  0.27340972     0.62400
F611        F  0.08841883  0.40128791  0.20509171    -0.22800
F612        F  0.08223104  0.44655773  0.17798919    -0.20100
F613        F  0.05976881  0.40637224  0.14741099    -0.19800
F614        F  0.43782986  0.45967088  0.27783142    -0.19800
F615        F  0.44468920  0.41673856  0.31030406    -0.20100
F616        F  0.42472094  0.41629492  0.24747163    -0.22800
O617        O  0.47531191  0.54321370  0.95523188    -0.88200
C618        C  0.43569027  0.96477286  0.97649821     0.87800
Mg619      Mg  0.02228124  0.54422741  0.92579716     1.58100
O620        O  0.45936120  0.00329132  0.06548381    -0.87900
O621        O  0.44729050  0.55685904  0.00821704    -0.75300
C622        C  0.11355831  0.95312649  0.04015587     0.92900
O623        O  0.48858534  0.98383826  0.90747730    -0.75100
O624        O  0.11289997  0.96373781  0.00420066    -0.82600
Mg625      Mg  0.44500222  0.51350804  0.92131450     1.58000
C626        C  0.01095368  0.94819576  0.14962327     0.92800
O627        O  0.39970453  0.54153508  0.93073268    -0.80900
H628        H  0.45654686  0.53396151  0.10079862    -0.06200
C629        C  0.02281039  0.93353253  0.01483222     0.87700
O630        O  0.04142442  0.55256672  0.99068167    -0.75400
O631        O  0.43776583  0.99218864  0.97857371    -0.88100
O632        O  0.48430839  0.95529518  0.13696612    -0.80900
C633        C  0.38749605  0.96025970  0.07883258     0.92900
C634        C  0.37594411  0.54384057  0.95478036     0.92800
Mg635      Mg  0.04403252  0.98261332  0.07347047     1.58000
O636        O  0.08981014  0.95536322  0.06414503    -0.80900
O637        O  0.00005567  0.51694638  0.08899332    -0.75100
O638        O  0.38646336  0.98128551  0.05258972    -0.80900
O639        O  0.45391473  0.53859643  0.86202921    -0.82700
O640        O  0.10083173  0.51988396  0.94425096    -0.81000
C641        C  0.47127281  0.51696331  0.08693350     0.87200
O642        O  0.05039629  0.50858498  0.01743208    -0.88100
O643        O  0.01348675  0.95222769  0.03991483    -0.88200
O644        O  0.04201387  0.94022440  0.98631647    -0.75300
Mg645      Mg  0.41905859  0.51542215  0.02740536     1.58000
O646        O  0.41401153  0.95018838  0.09264581    -0.82700
H647        H  0.47508912  0.58518279  0.97583758    -0.06400
O648        O  0.02828243  0.49675265  0.93166326    -0.87900
H649        H  0.03417018  0.96229219  0.89424055    -0.06200
H650        H  0.06092451  0.54637975  0.04696618    -0.06400
C651        C  0.01903269  0.97916285  0.90767696     0.87200
C652        C  0.46606992  0.56273562  0.97905708     0.87800
C653        C  0.05171445  0.53608112  0.01944574     0.87800
H654        H  0.01372665  0.91101472  0.01657113    -0.06400
O655        O  0.44549813  0.94809202  0.00528370    -0.75400
Mg656      Mg  0.07072044  0.98183932  0.96736146     1.58000
H657        H  0.42611507  0.95470858  0.94901812    -0.06400
C658        C  0.47988474  0.54733660  0.84598943     0.92800
O659        O  0.07289470  0.55000825  0.90393630    -0.82600
C660        C  0.09959907  0.54119797  0.91856270     0.92900
O661        O  0.37687142  0.53332325  0.99075148    -0.82600
Mg662      Mg  0.46538211  0.95550053  0.07006374     1.58200
O663        O  0.00553193  0.54176104  0.85827054    -0.80900
O664        O  0.03628170  0.95750342  0.13271649    -0.82600
C665        C  0.50244916  0.59547474  0.64570479     0.45600
H666        H  0.00332200  0.57302664  0.63644749    -0.03400
C667        C  0.50646024  0.65279360  0.65600465     0.45600
H668        H  0.50788973  0.67688716  0.66133212    -0.03400
C669        C  0.49931709  0.60483526  0.69084989    -0.17100
C670        C  0.03574453  0.61139542  0.62693695    -0.16900
C671        C  0.47632996  0.61314950  0.62245017    -0.17300
C672        C  0.00467125  0.63521672  0.69508276    -0.17200
C673        C  0.03755371  0.64173253  0.63392253    -0.16800
C674        C  0.47765097  0.64369146  0.62898362    -0.17100
O675        O  0.00924474  0.78602148  0.05105581    -0.88200
C676        C  0.05198556  0.70470558  0.04224951     0.87800
Mg677      Mg  0.46035286  0.79096064  0.07329913     1.58100
O678        O  0.03392338  0.73941732  0.94873694    -0.87900
O679        O  0.04147571  0.79821728  0.00154797    -0.75300
C680        C  0.37840669  0.70010745  0.95124592     0.92900
O681        O  0.99478642  0.72730303  0.10211176    -0.75100
O682        O  0.37544034  0.71336138  0.98544165    -0.82600
Mg683      Mg  0.03804605  0.75800024  0.08965248     1.58000
C684        C  0.48828406  0.69271415  0.85582789     0.92800
O685        O  0.08364700  0.78703233  0.08351985    -0.80900
H686        H  0.03938406  0.77350711  0.91016917    -0.06200
C687        C  0.46330119  0.68006411  0.98757194     0.87700
O688        O  0.44668860  0.79854871  0.00590388    -0.75400
O689        O  0.05094235  0.73202951  0.03750408    -0.88100
O690        O  0.01450762  0.69042978  0.87850239    -0.80900
C691        C  0.10551305  0.69601601  0.94497025     0.92900
C692        C  0.10884659  0.78878414  0.06179652     0.92800
Mg693      Mg  0.44993360  0.72936716  0.92579236     1.58000
O694        O  0.40376239  0.70249095  0.93031630    -0.80900
O695        O  0.49458845  0.75788995  0.91466888    -0.75100
O696        O  0.10589179  0.71836336  0.96904544    -0.80900
O697        O  0.02467100  0.78541562  0.14507556    -0.82700
O698        O  0.38321507  0.77285765  0.04186903    -0.81000
C699        C  0.02346803  0.75700079  0.92281365     0.87200
O700        O  0.43863590  0.75436252  0.97935043    -0.88100
O701        O  0.47571842  0.69854493  0.96457032    -0.88200
O702        O  0.44223167  0.68745780  0.01352253    -0.75300
Mg703      Mg  0.07139629  0.75636199  0.98731212     1.58000
O704        O  0.07970498  0.68496485  0.93075642    -0.82700
H705        H  0.01068388  0.82728422  0.02810290    -0.06400
O706        O  0.45290671  0.74425685  0.06852736    -0.87900
H707        H  0.44664488  0.70937808  0.10563874    -0.06200
H708        H  0.43251756  0.79185892  0.94719742    -0.06400
C709        C  0.46286038  0.72603332  0.09402239     0.87200
C710        C  0.02012776  0.80482960  0.02742096     0.87800
C711        C  0.43872981  0.78182952  0.97619676     0.87800
H712        H  0.47127459  0.65713361  0.98639013    -0.06400
O713        O  0.04306175  0.68682324  0.01434269    -0.75400
Mg714      Mg  0.41486601  0.73085103  0.02756984     1.58000
H715        H  0.05965089  0.69582461  0.07140751    -0.06400
C716        C  0.49714851  0.79281195  0.16279010     0.92800
O717        O  0.40904755  0.79774725  0.09046585    -0.82600
C718        C  0.38430132  0.79366632  0.06853020     0.92900
O719        O  0.11084377  0.77582815  0.02736485    -0.82600
Mg720      Mg  0.02766570  0.69177407  0.94721569     1.58200
O721        O  0.47149789  0.78960448  0.14213108    -0.80900
O722        O  0.46186638  0.70353466  0.86786934    -0.82600
C723        C  0.50510722  0.90742941  0.35728323     0.45600
H724        H  0.00535106  0.93034649  0.35306415    -0.03400
C725        C  0.50523179  0.84968057  0.35555023     0.45600
H726        H  0.50398168  0.82513237  0.35546252    -0.03400
C727        C  0.50460232  0.89419055  0.31315076    -0.17100
C728        C  0.03293247  0.89288085  0.37687041    -0.16900
C729        C  0.47619622  0.89381720  0.38017212    -0.17300
C730        C  0.00481649  0.86061568  0.31084020    -0.17200
C731        C  0.03412730  0.86220588  0.37565219    -0.16800
C732        C  0.47518093  0.86309080  0.37628039    -0.17100
O733        O  0.27331600  0.54917627  0.53638823    -0.88200
C734        C  0.31207574  0.96827766  0.52787166     0.87800
Mg735      Mg  0.22513039  0.55533769  0.55497108     1.58100
O736        O  0.29417099  0.00378857  0.43496670    -0.87900
O737        O  0.30448276  0.56095753  0.48552323    -0.75300
C738        C  0.13889296  0.96300981  0.44129560     0.92900
O739        O  0.25804362  0.99097392  0.59004888    -0.75100
O740        O  0.13783431  0.97461659  0.47685091    -0.82600
Mg741      Mg  0.30140339  0.52008716  0.57451254     1.58000
C742        C  0.24885987  0.95606712  0.34388746     0.92800
O743        O  0.34637364  0.54800795  0.56790117    -0.80900
H744        H  0.30027599  0.53664491  0.39506255    -0.06200
C745        C  0.22713464  0.94366794  0.47333862     0.87700
O746        O  0.20831187  0.56161535  0.48877714    -0.75400
O747        O  0.31160380  0.99557528  0.52289041    -0.88100
O748        O  0.27454469  0.95582038  0.36503676    -0.80900
C749        C  0.36456977  0.95820001  0.43281377     0.92900
C750        C  0.37147490  0.54910138  0.54637740     0.92800
Mg751      Mg  0.21009569  0.99234316  0.41366965     1.58000
O752        O  0.16389432  0.96463302  0.41937665    -0.80900
O753        O  0.25498174  0.52075642  0.39865648    -0.75100
O754        O  0.36461876  0.98090327  0.45600925    -0.80900
O755        O  0.29052205  0.54649783  0.63135957    -0.82700
O756        O  0.14574054  0.52996022  0.53849062    -0.81000
C757        C  0.28451036  0.52017709  0.40809081     0.87200
O758        O  0.19979888  0.51664084  0.46556190    -0.88100
O759        O  0.23848199  0.96295428  0.45087349    -0.88200
O760        O  0.20645269  0.95007298  0.50005814    -0.75300
Mg761      Mg  0.33309694  0.51846955  0.47155054     1.58000
O762        O  0.33908924  0.94759169  0.41712614    -0.82700
H763        H  0.27497391  0.59044843  0.51345291    -0.06400
O764        O  0.21801861  0.50770549  0.55330873    -0.87900
H765        H  0.21306301  0.97411934  0.59247605    -0.06200
H766        H  0.19022720  0.55298705  0.43234173    -0.06400
C767        C  0.22876183  0.99063675  0.57943044     0.87200
C768        C  0.28401789  0.56786131  0.51238354     0.87800
C769        C  0.19862044  0.54395245  0.46109167     0.87800
H770        H  0.23566267  0.92096655  0.47094159    -0.06400
O771        O  0.30249665  0.95047349  0.50028884    -0.75400
Mg772      Mg  0.17868852  0.99239652  0.51690206     1.58000
H773        H  0.31966644  0.95939899  0.55706512    -0.06400
C774        C  0.26389515  0.55559114  0.64493010     0.92800
O775        O  0.17501430  0.56230853  0.57389417    -0.82600
C776        C  0.14811852  0.55175203  0.56353880     0.92900
O777        O  0.37310656  0.53702983  0.51133013    -0.82600
Mg778      Mg  0.28730039  0.95616844  0.43344860     1.58200
O779        O  0.23862667  0.55565038  0.62300751    -0.80900
O780        O  0.22253672  0.96593451  0.35771287    -0.82600
C781        C  0.24626208  0.84789041  0.14458908     0.45600
H782        H  0.24759288  0.82323680  0.14365743    -0.03400
C783        C  0.24535121  0.90565767  0.14919081     0.45600
H784        H  0.24597598  0.93017630  0.15101738    -0.03400
C785        C  0.24935897  0.85950447  0.18879036    -0.17100
C786        C  0.27423677  0.86313018  0.12116997    -0.16900
C787        C  0.21428473  0.86180710  0.12793722    -0.17300
C788        C  0.24697799  0.89012804  0.19141534    -0.17200
C789        C  0.27391413  0.89388599  0.12507284    -0.16800
C790        C  0.21543415  0.89284759  0.12750230    -0.17100
O791        O  0.23698627  0.79413195  0.45429587    -0.88200
C792        C  0.20009822  0.71138438  0.46909370     0.87800
Mg793      Mg  0.28591710  0.80013869  0.43773818     1.58100
O794        O  0.21541606  0.75082870  0.55981683    -0.87900
O795        O  0.20436310  0.80682318  0.50322984    -0.75300
C796        C  0.37013925  0.71184332  0.56383227     0.92900
O797        O  0.25523555  0.73399832  0.40701007    -0.75100
O798        O  0.37270700  0.72326921  0.52833356    -0.82600
Mg799      Mg  0.21037065  0.76301858  0.41769208     1.58000
C800        C  0.25768946  0.70530399  0.65668030     0.92800
O801        O  0.16365600  0.78971184  0.42253750    -0.80900
H802        H  0.20791397  0.78599326  0.59608287    -0.06200
C803        C  0.28452120  0.69093606  0.52854368     0.87700
O804        O  0.30008151  0.80854802  0.50486982    -0.75400
O805        O  0.19923626  0.73886061  0.47194265    -0.88100
O806        O  0.23368554  0.70751754  0.63306392    -0.80900
C807        C  0.14627330  0.70429102  0.56691691     0.92900
C808        C  0.13856056  0.79182076  0.44431800     0.92800
Mg809      Mg  0.29814204  0.74108907  0.58786129     1.58000
O810        O  0.34472084  0.71461262  0.58458916    -0.80900
O811        O  0.25346131  0.77022071  0.59772416    -0.75100
O812        O  0.14451052  0.72536618  0.54093019    -0.80900
O813        O  0.22180074  0.78834685  0.35928330    -0.82700
O814        O  0.36537045  0.77786901  0.46408297    -0.81000
C815        C  0.22463526  0.76946632  0.58512205     0.87200
O816        O  0.31036579  0.76534154  0.53340721    -0.88100
O817        O  0.27221169  0.71068353  0.54948877    -0.88200
O818        O  0.30555416  0.69692205  0.50213825    -0.75300
Mg819      Mg  0.17711922  0.76418008  0.52039109     1.58000
O820        O  0.17263765  0.69542804  0.58190756    -0.82700
H821        H  0.23311350  0.83618032  0.47401090    -0.06400
O822        O  0.29399238  0.75299965  0.44418574    -0.87900
H823        H  0.30064637  0.71777479  0.40774836    -0.06200
H824        H  0.31563664  0.80388855  0.56337670    -0.06400
C825        C  0.28423533  0.73443019  0.41910716     0.87200
C826        C  0.22505753  0.81336603  0.47653765     0.87800
C827        C  0.30934139  0.79287447  0.53506713     0.87800
H828        H  0.27645678  0.66818378  0.53187503    -0.06400
O829        O  0.20983343  0.69507199  0.49833140    -0.75400
Mg830      Mg  0.33259893  0.73946743  0.48518044     1.58000
H831        H  0.19350489  0.70103941  0.44042498    -0.06400
C832        C  0.24817529  0.79765832  0.34509678     0.92800
O833        O  0.33757455  0.80663736  0.42168990    -0.82600
C834        C  0.36421324  0.79814862  0.43693507     0.92900
O835        O  0.13707316  0.78014206  0.47951179    -0.82600
Mg836      Mg  0.22353048  0.70387751  0.56514292     1.58200
O837        O  0.27327572  0.79865202  0.36779110    -0.80900
O838        O  0.28516999  0.71426410  0.64536711    -0.82600
C839        C  0.24578423  0.65115110  0.85263847     0.45600
H840        H  0.24810562  0.67540649  0.85372282    -0.03400
C841        C  0.24195123  0.59341838  0.84856682     0.45600
H842        H  0.24039629  0.56901187  0.84869198    -0.03400
C843        C  0.24945396  0.63862432  0.80894074    -0.17100
C844        C  0.27149430  0.63526657  0.87845837    -0.16900
C845        C  0.21359986  0.63917534  0.86830876    -0.17300
C846        C  0.24692135  0.60780721  0.80630057    -0.17200
C847        C  0.26988787  0.60459048  0.87575896    -0.16800
C848        C  0.21148002  0.60846247  0.86523797    -0.17100
C849        C  0.22683403  0.65601872  0.74337483    -0.05600
C850        C  0.25144416  0.65856622  0.77231044     0.00300
C851        C  0.27776783  0.67752331  0.76392387    -0.08300
C852        C  0.27823327  0.69311559  0.72650930    -0.05700
C853        C  0.25346296  0.69055795  0.69735507     0.00300
C854        C  0.22667824  0.67197063  0.70656915    -0.08200
C855        C  0.19798606  0.66791373  0.67806644     0.62200
H856        H  0.20754156  0.64079319  0.74993966     0.12900
H857        H  0.29841101  0.70724662  0.71949705     0.12900
C858        C  0.30626355  0.68002995  0.79274340     0.62400
F859        F  0.17530091  0.64878742  0.69396334    -0.22800
F860        F  0.20785188  0.65598904  0.64129281    -0.20100
F861        F  0.18300345  0.69507202  0.67176559    -0.19800
F862        F  0.31768838  0.65199984  0.80227517    -0.19800
F863        F  0.29744261  0.69464085  0.82798422    -0.20100
F864        F  0.33118188  0.69582876  0.77555933    -0.22800
C865        C  0.22909762  0.81821520  0.23268130    -0.05600
C866        C  0.25332791  0.83903092  0.22498246     0.00300
C867        C  0.27870036  0.84158968  0.25374170    -0.08300
C868        C  0.27618248  0.82722988  0.29174045    -0.05700
C869        C  0.24981029  0.80927543  0.30191739     0.00300
C870        C  0.22604061  0.80403721  0.27105717    -0.08200
C871        C  0.19633820  0.78537091  0.27857243     0.62200
H872        H  0.21071811  0.81532581  0.20952553     0.12900
H873        H  0.29517744  0.83059675  0.31398788     0.12900
C874        C  0.30958023  0.85794725  0.24538806     0.62400
F875        F  0.17892003  0.78056403  0.24302399    -0.22800
F876        F  0.17660162  0.80001779  0.30576327    -0.20100
F877        F  0.20481345  0.75777678  0.29407711    -0.19800
F878        F  0.31145492  0.88314121  0.26958178    -0.19800
F879        F  0.31223890  0.86604485  0.20510652    -0.20100
F880        F  0.33523863  0.83952457  0.25452145    -0.22800
C881        C  0.22503127  0.91962305  0.29783780    -0.05600
C882        C  0.24845594  0.94131186  0.30372519     0.00300
C883        C  0.26998189  0.94780070  0.27199525    -0.08300
C884        C  0.26779581  0.93112953  0.23555381    -0.05700
C885        C  0.24576412  0.90760860  0.23054411     0.00300
C886        C  0.22269193  0.90299540  0.26184732    -0.08200
C887        C  0.19364934  0.88290491  0.25959099     0.62200
H888        H  0.20800404  0.91554704  0.32206580     0.12900
H889        H  0.28368556  0.93627222  0.21088842     0.12900
C890        C  0.29460750  0.97245240  0.27639443     0.62400
F891        F  0.19492768  0.86261009  0.29129867    -0.22800
F892        F  0.19102197  0.86755557  0.22367147    -0.20100
F893        F  0.16627192  0.90002129  0.26380938    -0.19800
F894        F  0.31727577  0.96450520  0.30539204    -0.19800
F895        F  0.27977197  0.99861097  0.28834516    -0.20100
F896        F  0.31023207  0.97788386  0.24006609    -0.22800
C897        C  0.23758905  0.55575255  0.71194468    -0.05600
C898        C  0.26184766  0.56686298  0.68719613     0.00300
C899        C  0.28211789  0.58946982  0.70230585    -0.08300
C900        C  0.27702661  0.60036408  0.74177961    -0.05700
C901        C  0.25176675  0.59065605  0.76667187     0.00300
C902        C  0.23225353  0.56666187  0.75171833    -0.08200
C903        C  0.20577617  0.55200780  0.77585611     0.62200
H904        H  0.22285609  0.53801777  0.69956324     0.12900
H905        H  0.29299094  0.61721655  0.75339055     0.12900
C906        C  0.30819247  0.60311473  0.67639867     0.62400
F907        F  0.18675817  0.53369962  0.75176824    -0.22800
F908        F  0.18617029  0.57334324  0.79190585    -0.20100
F909        F  0.21852823  0.53448125  0.80653401    -0.19800
F910        F  0.29527462  0.61310919  0.63985374    -0.19800
F911        F  0.33153777  0.58202113  0.66877763    -0.20100
F912        F  0.32265969  0.62715321  0.69559882    -0.22800
C913        C  0.11818174  0.83213945  0.40071393    -0.05600
C914        C  0.11100578  0.80907117  0.42782896     0.00300
C915        C  0.07847682  0.80261794  0.43626739    -0.08300
C916        C  0.05451260  0.82013168  0.41748204    -0.05700
C917        C  0.06174161  0.84380646  0.39104201     0.00300
C918        C  0.09445961  0.84876933  0.38078500    -0.08200
C919        C  0.10673036  0.86886654  0.34708918     0.62200
H920        H  0.14301888  0.83673932  0.39373393     0.12900
H921        H  0.02978980  0.81614267  0.42458040     0.12900
C922        C  0.06875337  0.77743718  0.46457799     0.62400
F923        F  0.12552665  0.85231785  0.32080701    -0.22800
F924        F  0.12562608  0.89099961  0.36392936    -0.20100
F925        F  0.08272130  0.88152013  0.32400786    -0.19800
F926        F  0.07835780  0.78388549  0.50409733    -0.19800
F927        F  0.08268615  0.75099203  0.45208311    -0.20100
F928        F  0.03594580  0.77330096  0.46479428    -0.22800
C929        C  0.45186815  0.82052484  0.41575863    -0.05600
C930        C  0.44705643  0.84375149  0.38757873     0.00300
C931        C  0.41554938  0.84845544  0.37237299    -0.08300
C932        C  0.38992474  0.83422044  0.39106868    -0.05700
C933        C  0.39413713  0.81240190  0.42127669     0.00300
C934        C  0.42604577  0.80469202  0.43318898    -0.08200
C935        C  0.43326835  0.78117125  0.46531274     0.62200
H936        H  0.47599401  0.81609408  0.42593612     0.12900
H937        H  0.36602688  0.83987093  0.38058284     0.12900
C938        C  0.40772521  0.86603388  0.33443137     0.62400
F939        F  0.46579329  0.77799109  0.47237692    -0.22800
F940        F  0.42163386  0.75382895  0.45258374    -0.20100
F941        F  0.41932167  0.78917538  0.50187803    -0.19800
F942        F  0.38256996  0.85314895  0.31310408    -0.19800
F943        F  0.43338799  0.86601722  0.30855632    -0.20100
F944        F  0.39874707  0.89463112  0.34507395    -0.22800
C945        C  0.40409366  0.91828818  0.44417758    -0.05600
C946        C  0.39535255  0.94419587  0.42336150     0.00300
C947        C  0.41714326  0.95754075  0.39642792    -0.08300
C948        C  0.44522229  0.94191959  0.38670016    -0.05700
C949        C  0.45166640  0.91304846  0.40208717     0.00300
C950        C  0.43320481  0.90374444  0.43631189    -0.08200
C951        C  0.44456703  0.88257343  0.46941136     0.62200
H952        H  0.38878750  0.91023578  0.46836973     0.12900
H953        H  0.46089437  0.95182193  0.36467369     0.12900
C954        C  0.41002626  0.98759557  0.37690576     0.62400
F955        F  0.44774612  0.89834325  0.50552425    -0.22800
F956        F  0.97442051  0.86909393  0.45731974    -0.20100
F957        F  0.42200384  0.86058690  0.47537429    -0.19800
F958        F  0.40640417  0.00904641  0.40685679    -0.19800
F959        F  0.38212061  0.98578648  0.35404681    -0.20100
F960        F  0.43437683  0.99679677  0.35150009    -0.22800
C961        C  0.07319817  0.93324735  0.37024304    -0.05600
C962        C  0.05759917  0.91301272  0.39595458     0.00300
C963        C  0.06535375  0.91328139  0.43826728    -0.08300
C964        C  0.09228424  0.92961031  0.45164321    -0.05700
C965        C  0.11027423  0.94713260  0.42481303     0.00300
C966        C  0.09978641  0.94998626  0.38358901    -0.08200
C967        C  0.11673793  0.96999639  0.35326667     0.62200
H968        H  0.06554093  0.93449818  0.33862575     0.12900
H969        H  0.09932624  0.92912347  0.48351701     0.12900
C970        C  0.04318640  0.90013536  0.46991290     0.62400
F971        F  0.09937984  0.97315528  0.31733694    -0.22800
F972        F  0.14614232  0.95782739  0.34359271    -0.20100
F973        F  0.12101048  0.99811987  0.36978440    -0.19800
F974        F  0.03861564  0.87015369  0.46363661    -0.19800
F975        F  0.51443894  0.91188480  0.46485083    -0.20100
F976        F  0.05505361  0.90361624  0.50921573    -0.22800
C977        C  0.17792922  0.64691240  0.92779554    -0.05600
C978        C  0.18900500  0.65791926  0.89008982     0.00300
C979        C  0.17495051  0.68470030  0.87426783    -0.08300
C980        C  0.14853343  0.69700514  0.89477064    -0.05700
C981        C  0.13604582  0.68407342  0.92994689     0.00300
C982        C  0.15148878  0.65938035  0.94782133    -0.08200
C983        C  0.13971573  0.64618409  0.98752754     0.62200
H984        H  0.18970866  0.62766915  0.94104715     0.12900
H985        H  0.13658799  0.71664900  0.88285801     0.12900
C986        C  0.18594489  0.70034046  0.83565183     0.62400
F987        F  0.15891626  0.62287227  0.00080315    -0.22800
F988        F  0.10893636  0.63553035  0.98225311    -0.20100
F989        F  0.13974354  0.66794306  0.01747869    -0.19800
F990        F  0.16426451  0.72177837  0.82265160    -0.19800
F991        F  0.18900340  0.68029852  0.80434078    -0.20100
F992        F  0.21469408  0.71462556  0.84243700    -0.22800
C993        C  0.32012563  0.68984682  0.94530842    -0.05600
C994        C  0.35148444  0.68198088  0.93466775     0.00300
C995        C  0.35627157  0.65719618  0.90844512    -0.08300
C996        C  0.32953665  0.64353568  0.89040388    -0.05700
C997        C  0.29808081  0.65182087  0.89982975     0.00300
C998        C  0.29325728  0.67482397  0.92915194    -0.08200
C999        C  0.26043421  0.68326066  0.94483691     0.62200
H1000       H  0.31670342  0.70836663  0.96605727     0.12900
H1001       H  0.33322642  0.62608441  0.86820309     0.12900
C1002       C  0.38915370  0.64439143  0.89959964     0.62400
F1003       F  0.26240677  0.70011065  0.98021397    -0.22800
F1004       F  0.24337349  0.65783719  0.95384084    -0.20100
F1005       F  0.24420413  0.70004418  0.91612565    -0.19800
F1006       F  0.40711530  0.64233588  0.93515262    -0.19800
F1007       F  0.40469381  0.66229492  0.87180275    -0.20100
F1008       F  0.38696697  0.61596627  0.88338335    -0.22800
C1009       C  0.19231653  0.81465822  0.09562277    -0.05600
C1010       C  0.18582245  0.84263953  0.11373960     0.00300
C1011       C  0.15261438  0.85047200  0.11739503    -0.08300
C1012       C  0.12919656  0.83334549  0.09725320    -0.05700
C1013       C  0.13627929  0.80665546  0.07759945     0.00300
C1014       C  0.16835734  0.79659902  0.07747042    -0.08200
C1015       C  0.17722735  0.76676665  0.05864234     0.62200
H1016       H  0.21644237  0.80662395  0.09545189     0.12900
H1017       H  0.10431484  0.84024400  0.09881304     0.12900
C1018       C  0.13841165  0.87402688  0.14475345     0.62400
F1019       F  0.20830914  0.75853930  0.06796734    -0.22800
F1020       F  0.17419474  0.76851431  0.01663599    -0.20100
F1021       F  0.15739709  0.74457377  0.07314244    -0.19800
F1022       F  0.12246429  0.89485521  0.12112286    -0.19800
F1023       F  0.16026946  0.88826459  0.16876394    -0.20100
F1024       F  0.11673443  0.86056366  0.17055829    -0.22800
C1025       C  0.32546028  0.80536233  0.06262634    -0.05600
C1026       C  0.35633988  0.81360556  0.07541688     0.00300
C1027       C  0.35959934  0.84107682  0.09610831    -0.08300
C1028       C  0.33279184  0.85305836  0.11519508    -0.05700
C1029       C  0.30165295  0.84583631  0.10259717     0.00300
C1030       C  0.29858705  0.82333121  0.07196481    -0.08200
C1031       C  0.26960259  0.81920459  0.04491843     0.62200
H1032       H  0.32250666  0.78608665  0.04299077     0.12900
H1033       H  0.33685822  0.86972423  0.13791442     0.12900
C1034       C  0.38836398  0.86150987  0.09321961     0.62400
F1035       F  0.27863514  0.82229258  0.00460276    -0.22800
F1036       F  0.24602238  0.83999219  0.05222465    -0.20100
F1037       F  0.25776219  0.79079916  0.05013322    -0.19800
F1038       F  0.37884128  0.88740857  0.07391897    -0.19800
F1039       F  0.41341080  0.85012307  0.07083346    -0.20100
F1040       F  0.39887621  0.86876048  0.13182742    -0.22800
C1041       C  0.01705559  0.79913599  0.22907476    -0.05600
C1042       C  0.49653495  0.80924854  0.20216177     0.00300
C1043       C  0.47814408  0.83543591  0.20806928    -0.08300
C1044       C  0.48182810  0.85161191  0.24451245    -0.05700
C1045       C  0.00247448  0.84094680  0.27332843     0.00300
C1046       C  0.02135033  0.81476573  0.26598093    -0.08200
C1047       C  0.04799448  0.80395282  0.29398389     0.62200
H1048       H  0.03099622  0.77925725  0.22303520     0.12900
H1049       H  0.46679964  0.87073481  0.24960840     0.12900
C1050       C  0.45494565  0.84686469  0.17605385     0.62400
F1051       F  0.06849626  0.78434996  0.27451026    -0.22800
F1052       F  0.03586163  0.78921843  0.32738590    -0.20100
F1053       F  0.06603479  0.82780006  0.30608896    -0.19800
F1054       F  0.42956164  0.82724446  0.17281502    -0.19800
F1055       F  0.47001539  0.84945820  0.13876827    -0.20100
F1056       F  0.44307954  0.87473120  0.18614512    -0.22800
C1057       C  0.07271327  0.65590885  0.57625785    -0.05600
C1058       C  0.06406429  0.66079399  0.61723208     0.00300
C1059       C  0.08212472  0.68170619  0.64069453    -0.08300
C1060       C  0.10785326  0.69647478  0.62207030    -0.05700
C1061       C  0.11688993  0.69028539  0.58193667     0.00300
C1062       C  0.09978268  0.66909566  0.55889592    -0.08200
C1063       C  0.11121093  0.65930262  0.51715290     0.62200
H1064       H  0.05858108  0.64079522  0.55804120     0.12900
H1065       H  0.12180525  0.71263944  0.63914379     0.12900
C1066       C  0.07615503  0.68769893  0.68551169     0.62400
F1067       F  0.14249928  0.64931815  0.52008063    -0.22800
F1068       F  0.10973648  0.68304550  0.49032985    -0.20100
F1069       F  0.09283273  0.63627623  0.50142012    -0.19800
F1070       F  0.10187343  0.70182248  0.70408580    -0.19800
F1071       F  0.55172170  0.70633724  0.68215237    -0.20100
F1072       F  0.04964331  0.70572835  0.69015365    -0.22800
C1073       C  0.42847194  0.70659686  0.57767467    -0.05600
C1074       C  0.39747492  0.69528044  0.58233685     0.00300
C1075       C  0.39310367  0.66886825  0.60530043    -0.08300
C1076       C  0.41985736  0.65516710  0.62344433    -0.05700
C1077       C  0.45122801  0.66481946  0.61623526     0.00300
C1078       C  0.45564603  0.69201989  0.59421208    -0.08200
C1079       C  0.48809420  0.70647935  0.58799524     0.62200
H1080       H  0.43115531  0.72731992  0.56110655     0.12900
H1081       H  0.41648690  0.63565569  0.64234488     0.12900
C1082       C  0.36073970  0.65380033  0.60863962     0.62400
F1083       F  0.48684919  0.72870561  0.55869881    -0.22800
F1084       F  0.00948693  0.68807526  0.57376618    -0.20100
F1085       F  0.49840582  0.71942537  0.62400867    -0.19800
F1086       F  0.34668546  0.65137519  0.57039580    -0.19800
F1087       F  0.34108003  0.67008153  0.63406188    -0.20100
F1088       F  0.36359008  0.62530968  0.62437334    -0.22800
C1089       C  0.43701469  0.57237360  0.61968840    -0.05600
C1090       C  0.45078268  0.59668131  0.59924208     0.00300
C1091       C  0.43984108  0.60354151  0.55882937    -0.08300
C1092       C  0.41368519  0.58758421  0.54268254    -0.05700
C1093       C  0.39969926  0.56404867  0.56398305     0.00300
C1094       C  0.41254494  0.55520994  0.60212246    -0.08200
C1095       C  0.40143752  0.52696470  0.62337779     0.62200
H1096       H  0.44532209  0.56694490  0.65017673     0.12900
H1097       H  0.40420261  0.59341365  0.51280343     0.12900
C1098       C  0.45460965  0.62623368  0.53028048     0.62400
F1099       F  0.42073864  0.51988225  0.65653622    -0.22800
F1100       F  0.40250770  0.50326345  0.59632560    -0.20100
F1101       F  0.37052263  0.53044304  0.63721715    -0.19800
F1102       F  0.46243320  0.61234111  0.49395475    -0.19800
F1103       F  0.48206477  0.63904894  0.54551292    -0.20100
F1104       F  0.43258882  0.64849541  0.52195480    -0.22800
C1105       C  0.09152652  0.59454435  0.63301410    -0.05600
C1106       C  0.06291446  0.59345462  0.61058049     0.00300
C1107       C  0.06177245  0.57697065  0.57348189    -0.08300
C1108       C  0.09011264  0.56353943  0.55943355    -0.07300
C1109       C  0.11896783  0.56534026  0.58147927     0.00300
C1110       C  0.11928437  0.57987182  0.62017203    -0.08200
C1111       C  0.14813353  0.57943975  0.64889275     0.62200
H1112       H  0.09185982  0.60711532  0.66126390     0.12900
H1113       H  0.09009204  0.55185821  0.53051032     0.12900
C1114       C  0.03171933  0.57469118  0.54733728     0.62400
F1115       F  0.14031870  0.58902679  0.68776648    -0.22800
F1116       F  0.17171866  0.59808257  0.63430384    -0.20100
F1117       F  0.15993162  0.55069551  0.65244173    -0.19800
F1118       F  0.03717003  0.55991169  0.51093050    -0.19800
F1119       F  0.02089814  0.60278026  0.53781480    -0.20100
F1120       F  0.00821311  0.55929261  0.56769209    -0.22800
C1121       C  0.47680479  0.67273957  0.74170168    -0.05600
C1122       C  0.00218198  0.64969264  0.73629431     0.00300
C1123       C  0.02165679  0.64200603  0.77054187    -0.08300
C1124       C  0.01587772  0.65572507  0.80818481    -0.05700
C1125       C  0.49119496  0.67969581  0.81372280     0.00300
C1126       C  0.47162982  0.68740815  0.77942292    -0.08200
C1127       C  0.44562823  0.71103236  0.78189219     0.62200
H1128       H  0.46164027  0.67777593  0.71562895     0.12900
H1129       H  0.03043393  0.64907614  0.83421425     0.12900
C1130       C  0.05023420  0.62121506  0.77010604     0.62400
F1131       F  0.43232946  0.71722164  0.74395831    -0.22800
F1132       F  0.45829256  0.73726035  0.79721883    -0.20100
F1133       F  0.42130803  0.70129909  0.80688175    -0.19800
F1134       F  0.07666351  0.63687845  0.78373595    -0.19800
F1135       F  0.05730852  0.61014739  0.73216673    -0.20100
F1136       F  0.04496769  0.59759284  0.79630902    -0.22800
C1137       C  0.29806179  0.58799845  0.93927016    -0.05600
C1138       C  0.29342607  0.58428048  0.89690572     0.00300
C1139       C  0.31462726  0.56518077  0.87531396    -0.08300
C1140       C  0.33977041  0.55143013  0.89663624    -0.05700
C1141       C  0.34594401  0.55701666  0.93796310     0.00300
C1142       C  0.32440930  0.57518184  0.96018547    -0.08200
C1143       C  0.32983986  0.58214127  0.00503273     0.62200
H1144       H  0.28171468  0.60248235  0.95542790     0.12900
H1145       H  0.35587986  0.53670879  0.88050850     0.12900
C1146       C  0.31324669  0.56109695  0.82945003     0.62400
F1147       F  0.30841505  0.60326307  0.01918835    -0.22800
F1148       F  0.36041437  0.59319114  0.01096201    -0.20100
F1149       F  0.32603924  0.55650292  0.02788494    -0.19800
F1150       F  0.31525857  0.58860919  0.81113694    -0.19800
F1151       F  0.28534166  0.54686346  0.81823791    -0.20100
F1152       F  0.33834661  0.54401834  0.81491075    -0.22800
C1153       C  0.12554375  0.58047358  0.87715722    -0.05600
C1154       C  0.12946106  0.55684709  0.90501474     0.00300
C1155       C  0.16116878  0.54923009  0.91782367    -0.08300
C1156       C  0.18700292  0.56673602  0.90397208    -0.05700
C1157       C  0.18266687  0.59046753  0.87655388     0.00300
C1158       C  0.15141577  0.59630100  0.86118471    -0.08200
C1159       C  0.14362346  0.61710732  0.82599053     0.62200
H1160       H  0.10180834  0.58617360  0.86604467     0.12900
H1161       H  0.21105224  0.56220183  0.91486256     0.12900
C1162       C  0.16827926  0.52290068  0.94566563     0.62400
F1163       F  0.12562216  0.60183101  0.79718719    -0.22800
F1164       F  0.17030703  0.62742664  0.80637070    -0.20100
F1165       F  0.12609243  0.64109188  0.84008535    -0.19800
F1166       F  0.16155517  0.00045704  0.93657987    -0.19800
F1167       F  0.15435042  0.52743810  0.98331872    -0.20100
F1168       F  0.20079608  0.51893766  0.95203978    -0.22800
C1169       C  0.00316761  0.54298483  0.76942114    -0.05600
C1170       C  0.47984239  0.55815245  0.80309238     0.00300
C1171       C  0.45937137  0.58125521  0.78910711    -0.08300
C1172       C  0.46440852  0.59335493  0.75002194    -0.05700
C1173       C  0.48989410  0.58409463  0.72514357     0.00300
C1174       C  0.00937793  0.55658804  0.73137665    -0.08200
C1175       C  0.03396558  0.54211865  0.70373202     0.62200
H1176       H  0.01729677  0.52407020  0.77949188     0.12900
H1177       H  0.44959252  0.61166836  0.73948789     0.12900
C1178       C  0.43383995  0.59455033  0.81632441     0.62400
F1179       F  0.05031997  0.51923102  0.72317327    -0.22800
F1180       F  0.05632933  0.56252383  0.69139834    -0.20100
F1181       F  0.01882049  0.53002255  0.66998731    -0.19800
F1182       F  0.44779409  0.60477049  0.85212116    -0.19800
F1183       F  0.41120531  0.57313448  0.82529578    -0.20100
F1184       F  0.41820605  0.61830219  0.79789642    -0.22800
C1185       C  0.32319108  0.92280326  0.14325371    -0.05600
C1186       C  0.30067940  0.91455189  0.11320159     0.00300
C1187       C  0.30413508  0.92619304  0.07340139    -0.08300
C1188       C  0.33248383  0.94164459  0.06353364    -0.05700
C1189       C  0.35684462  0.94670578  0.09267861     0.00300
C1190       C  0.35135283  0.93848338  0.13385490    -0.08200
C1191       C  0.37472043  0.94641707  0.16799854     0.62200
H1192       H  0.31997027  0.91464973  0.17384257     0.12900
H1193       H  0.33611130  0.94937094  0.03261089     0.12900
C1194       C  0.27732746  0.92359360  0.04232375     0.62400
F1195       F  0.36205824  0.94071286  0.20612620    -0.22800
F1196       F  0.38203725  0.97646010  0.16622480    -0.20100
F1197       F  0.40246398  0.92985881  0.16441011    -0.19800
F1198       F  0.25040716  0.93765791  0.05730656    -0.19800
F1199       F  0.27048548  0.89399287  0.03494458    -0.20100
F1200       F  0.28510249  0.93688807  0.00560395    -0.22800
C1201       C  0.18456248  0.90236960  0.06334914    -0.05600
C1202       C  0.19280304  0.91221438  0.10302997     0.00300
C1203       C  0.17817454  0.93890559  0.11803786    -0.08300
C1204       C  0.15386216  0.95223197  0.09445558    -0.05700
C1205       C  0.14338012  0.94027495  0.05728370     0.00300
C1206       C  0.15974558  0.91571271  0.04032279    -0.08200
C1207       C  0.15024181  0.90297198  0.99909751     0.62200
H1208       H  0.19703207  0.88324366  0.05104474     0.12900
H1209       H  0.14190801  0.97207698  0.10554340     0.12900
C1210       C  0.18634267  0.95387582  0.15858819     0.62400
F1211       F  0.16810738  0.87796848  0.98931252    -0.22800
F1212       F  0.15502129  0.92414638  0.96911275    -0.20100
F1213       F  0.11832253  0.89490148  0.99936364    -0.19800
F1214       F  0.21292190  0.97178551  0.15394766    -0.19800
F1215       F  0.19192221  0.93338280  0.18898188    -0.20100
F1216       F  0.16150504  0.97182119  0.17191399    -0.22800
C1217       C  0.03505005  0.90892863  0.24993250    -0.05600
C1218       C  0.50641348  0.91344267  0.27527822     0.00300
C1219       C  0.48029288  0.93006344  0.25822283    -0.08300
C1220       C  0.48388917  0.94459671  0.22079627    -0.05700
C1221       C  0.51222849  0.94350573  0.19876107     0.00300
C1222       C  0.03875004  0.92260890  0.21133875    -0.08200
C1223       C  0.07063935  0.91998343  0.19003293     0.62200
H1224       H  0.05457945  0.89635294  0.26308040     0.12900
H1225       H  0.46352268  0.95646089  0.20789944     0.12900
C1226       C  0.44718734  0.93224585  0.27545610     0.62400
F1227       F  0.09289542  0.90460324  0.21343834    -0.22800
F1228       F  0.08308260  0.94800155  0.18272490    -0.20100
F1229       F  0.06633623  0.90492969  0.15357891    -0.19800
F1230       F  0.43872122  0.96186206  0.28029038    -0.19800
F1231       F  0.44535603  0.91870997  0.31214603    -0.20100
F1232       F  0.42553105  0.91876893  0.24919027    -0.22800
O1233       O  0.97631697  0.03937590  0.94939421    -0.88200
C1234       C  0.93317597  0.46017053  0.97011119     0.87800
Mg1235     Mg  0.52447066  0.04953131  0.93298435     1.58100
O1236       O  0.95754082  0.49882263  0.05848956    -0.87900
O1237       O  0.94797168  0.05242550  0.00242842    -0.75300
C1238       C  0.61208254  0.45517533  0.04545047     0.92900
O1239       O  0.98560227  0.47888245  0.90101767    -0.75100
O1240       O  0.61187813  0.46574371  0.00940207    -0.82600
Mg1241     Mg  0.94659275  0.00913296  0.91542204     1.58000
C1242       C  0.50978166  0.45140504  0.15289013     0.92800
O1243       O  0.90104537  0.03708247  0.92412555    -0.80900
H1244       H  0.95688447  0.03004466  0.09631611    -0.06200
C1245       C  0.52169956  0.43662172  0.01965155     0.87700
O1246       O  0.54343545  0.05745413  0.99815835    -0.75400
O1247       O  0.93490799  0.48763920  0.97203552    -0.88100
O1248       O  0.98176607  0.45174407  0.13068917    -0.80900
C1249       C  0.88490103  0.45726442  0.07261133     0.92900
C1250       C  0.87729533  0.03964047  0.94814929     0.92800
Mg1251     Mg  0.54307346  0.48590095  0.07775487     1.58000
O1252       O  0.58829978  0.45807827  0.06916145    -0.80900
O1253       O  0.50195133  0.02128469  0.09613706    -0.75100
O1254       O  0.88417535  0.47812570  0.04626360    -0.80900
O1255       O  0.95604098  0.03418052  0.85578524    -0.82700
O1256       O  0.60341937  0.02443304  0.95159038    -0.81000
C1257       C  0.97176726  0.01315558  0.08247182     0.87200
O1258       O  0.55268589  0.01343439  0.02476560    -0.88100
O1259       O  0.51233808  0.45581972  0.04394425    -0.88200
O1260       O  0.54103336  0.44277207  0.99111374    -0.75300
Mg1261     Mg  0.91978808  0.01101455  0.02189685     1.58000
O1262       O  0.91127304  0.44665647  0.08621580    -0.82700
H1263       H  0.97547972  0.08121363  0.97042814    -0.06400
O1264       O  0.53072218  0.00212629  0.93862166    -0.87900
H1265       H  0.53173306  0.46517903  0.89934342    -0.06200
H1266       H  0.56280385  0.05123780  0.05451824    -0.06400
C1267       C  0.51708430  0.48235152  0.91296296     0.87200
C1268       C  0.96673673  0.05864905  0.97337963     0.87800
C1269       C  0.55376493  0.04094566  0.02690005     0.87800
H1270       H  0.51251331  0.41417568  0.02207443    -0.06400
O1271       O  0.94322790  0.44361084  0.99891917    -0.75400
Mg1272     Mg  0.56968225  0.48430246  0.97222531     1.58000
H1273       H  0.92373928  0.44994391  0.94266624    -0.06400
C1274       C  0.98195350  0.04363635  0.84021366     0.92800
O1275       O  0.57507023  0.05462230  0.91172771    -0.82600
C1276       C  0.60190105  0.04548308  0.92557124     0.92900
O1277       O  0.87802787  0.02881433  0.98400111    -0.82600
Mg1278     Mg  0.96297099  0.45117878  0.06369402     1.58200
O1279       O  0.50762456  0.04780192  0.86494417    -0.80900
O1280       O  0.53499588  0.46106814  0.13629281    -0.82600
C1281       C  0.00510462  0.09699857  0.64228794     0.45600
H1282       H  0.50239439  0.07107264  0.63983802    -0.03400
C1283       C  0.00761703  0.15412011  0.65481522     0.45600
H1284       H  0.00826274  0.17815032  0.66085814    -0.03400
C1285       C  0.00172306  0.10529912  0.68781104    -0.17100
C1286       C  0.53543702  0.10896961  0.62906846    -0.16900
C1287       C  0.97852836  0.11440292  0.61979984    -0.17300
C1288       C  0.50285015  0.13497046  0.69443293    -0.17200
C1289       C  0.53703182  0.13955173  0.63417063    -0.16800
C1290       C  0.97904114  0.14478234  0.62750628    -0.17100
O1291       O  0.50963366  0.28816868  0.04934717    -0.88200
C1292       C  0.55112442  0.20651571  0.03796230     0.87800
Mg1293     Mg  0.96036633  0.29422339  0.06472535     1.58100
O1294       O  0.53289640  0.24264987  0.94529651    -0.87900
O1295       O  0.54155632  0.30085708  0.99978016    -0.75300
C1296       C  0.88028196  0.19771473  0.95110636     0.92900
O1297       O  0.49433426  0.22864458  0.09918425    -0.75100
O1298       O  0.87682295  0.21237856  0.98408551    -0.82600
Mg1299     Mg  0.53779464  0.25892253  0.08703169     1.58000
C1300       C  0.98868064  0.19177943  0.85362994     0.92800
O1301       O  0.58314100  0.28709752  0.08187285    -0.80900
H1302       H  0.53831451  0.27670943  0.90662275    -0.06200
C1303       C  0.96593371  0.18144864  0.98678937     0.87700
O1304       O  0.94504659  0.29975060  0.99758933    -0.75400
O1305       O  0.54996033  0.23387349  0.03383726    -0.88100
O1306       O  0.51252275  0.19425702  0.87467906    -0.80900
C1307       C  0.60445876  0.19869721  0.94040687     0.92900
C1308       C  0.60842861  0.28927005  0.06064145     0.92800
Mg1309     Mg  0.95007609  0.22823335  0.92271277     1.58000
O1310       O  0.90552369  0.19984155  0.92999697    -0.80900
O1311       O  0.99340074  0.25789179  0.90898469    -0.75100
O1312       O  0.60472771  0.22095046  0.96464550    -0.80900
O1313       O  0.52573089  0.28585807  0.14328013    -0.82700
O1314       O  0.88245158  0.27365668  0.03746795    -0.81000
C1315       C  0.52240960  0.26022657  0.91935587     0.87200
O1316       O  0.93826274  0.25446180  0.97462755    -0.88100
O1317       O  0.97759032  0.19951690  0.96252538    -0.88200
O1318       O  0.94451548  0.18900231  0.01222558    -0.75300
Mg1319     Mg  0.57077991  0.25888972  0.98434171     1.58000
O1320       O  0.57863530  0.18785296  0.92578080    -0.82700
H1321       H  0.51143230  0.32980793  0.02774118    -0.06400
O1322       O  0.95355549  0.24738966  0.06338611    -0.87900
H1323       H  0.94889399  0.21291475  0.10154147    -0.06200
H1324       H  0.92959391  0.29036794  0.94009280    -0.06400
C1325       C  0.96450664  0.22964706  0.08881996     0.87200
C1326       C  0.52058281  0.30726977  0.02620951     0.87800
C1327       C  0.93700049  0.28170945  0.96948073     0.87800
H1328       H  0.97474577  0.15876723  0.98703181    -0.06400
O1329       O  0.54212031  0.18898073  0.00972471    -0.75400
Mg1330     Mg  0.91564392  0.23199571  0.02438762     1.58000
H1331       H  0.55896413  0.19730057  0.06684452    -0.06400
C1332       C  0.99797508  0.29745343  0.15410138     0.92800
O1333       O  0.90913095  0.30021933  0.08345109    -0.82600
C1334       C  0.88371307  0.29504428  0.06331607     0.92900
O1335       O  0.61064190  0.27729714  0.02551251    -0.82600
Mg1336     Mg  0.52638330  0.19493918  0.94301263     1.58200
O1337       O  0.97270215  0.29543024  0.13257484    -0.80900
O1338       O  0.96189822  0.20142211  0.86601448    -0.82600
C1339       C  0.00436483  0.40756344  0.35176514     0.45600
H1340       H  0.50595427  0.43084369  0.35496213    -0.03400
C1341       C  0.00568280  0.34973066  0.35146656     0.45600
H1342       H  0.00560157  0.32516482  0.35207828    -0.03400
C1343       C  0.00390996  0.39371014  0.30811947    -0.17100
C1344       C  0.53470969  0.39365455  0.37653570    -0.16900
C1345       C  0.97588437  0.39359545  0.37520513    -0.17300
C1346       C  0.50637170  0.36177931  0.31065991    -0.17200
C1347       C  0.53652900  0.36306354  0.37534035    -0.16800
C1348       C  0.97533610  0.36274375  0.37204514    -0.17100
O1349       O  0.77355317  0.04851462  0.53852872    -0.88200
C1350       C  0.81371622  0.46818511  0.52923954     0.87800
Mg1351     Mg  0.72540080  0.05379793  0.55775011     1.58100
O1352       O  0.79557717  0.50365919  0.43611682    -0.87900
O1353       O  0.80428277  0.06183739  0.48801354    -0.75300
C1354       C  0.64044237  0.46288583  0.44115825     0.92900
O1355       O  0.75840261  0.48971261  0.59048972    -0.75100
O1356       O  0.63888520  0.47481180  0.47644221    -0.82600
Mg1357     Mg  0.80254161  0.01976701  0.57609270     1.58000
C1358       C  0.75065519  0.45495072  0.34486702     0.92800
O1359       O  0.84707020  0.04862040  0.56962284    -0.80900
H1360       H  0.79903825  0.03819090  0.39693405    -0.06200
C1361       C  0.72833497  0.44326447  0.47403501     0.87700
O1362       O  0.70801114  0.06054081  0.49190634    -0.75400
O1363       O  0.81299091  0.49550289  0.52456462    -0.88100
O1364       O  0.77634133  0.45486917  0.36606908    -0.80900
C1365       C  0.86658024  0.45907800  0.43363351     0.92900
C1366       C  0.87199045  0.05017083  0.54774259     0.92800
Mg1367     Mg  0.71168481  0.49179131  0.41443474     1.58000
O1368       O  0.66585152  0.46387366  0.41998864    -0.80900
O1369       O  0.75423696  0.02115158  0.40088389    -0.75100
O1370       O  0.86671617  0.48198841  0.45656989    -0.80900
O1371       O  0.79083833  0.04541955  0.63356258    -0.82700
O1372       O  0.64665944  0.02738784  0.54314353    -0.81000
C1373       C  0.78383508  0.02130233  0.41004494     0.87200
O1374       O  0.69974177  0.01560454  0.46848998    -0.88100
O1375       O  0.74001649  0.46257211  0.45188803    -0.88200
O1376       O  0.70719286  0.44964398  0.50021596    -0.75300
Mg1377     Mg  0.83338729  0.01996527  0.47268821     1.58000
O1378       O  0.84098375  0.44802460  0.41882395    -0.82700
H1379       H  0.77434318  0.09027125  0.51718986    -0.06400
O1380       O  0.71933066  0.00605820  0.55547401    -0.87900
H1381       H  0.71364235  0.47232229  0.59221006    -0.06200
H1382       H  0.68940416  0.05199094  0.43572209    -0.06400
C1383       C  0.72910080  0.48932828  0.57988597     0.87200
C1384       C  0.78379832  0.06786584  0.51520802     0.87800
C1385       C  0.69818951  0.04291706  0.46426331     0.87800
H1386       H  0.73683774  0.42054538  0.47172257    -0.06400
O1387       O  0.80420504  0.45046207  0.50153335    -0.75400
Mg1388     Mg  0.67909640  0.49192086  0.51735606     1.58000
H1389       H  0.82140769  0.45920092  0.55832932    -0.06400
C1390       C  0.76393374  0.05389770  0.64709545     0.92800
O1391       O  0.67552618  0.06026830  0.57796701    -0.82600
C1392       C  0.64877534  0.04922326  0.56813963     0.92900
O1393       O  0.87337553  0.03855033  0.51237139    -0.82600
Mg1394     Mg  0.78902445  0.45597161  0.43472203     1.58200
O1395       O  0.73875310  0.05339802  0.62518900    -0.80900
O1396       O  0.72437454  0.46507104  0.35849666    -0.82600
C1397       C  0.74589824  0.34664312  0.14539417     0.45600
H1398       H  0.74763117  0.32202207  0.14456035    -0.03400
C1399       C  0.74423633  0.40440844  0.14962648     0.45600
H1400       H  0.74439799  0.42901279  0.15119263    -0.03400
C1401       C  0.75101430  0.35848043  0.18920277    -0.17100
C1402       C  0.77245274  0.36194693  0.11982353    -0.16900
C1403       C  0.71301849  0.36015068  0.13092995    -0.17300
C1404       C  0.74798684  0.38904090  0.19190170    -0.17200
C1405       C  0.77167451  0.39269711  0.12303616    -0.16800
C1406       C  0.71351813  0.39119398  0.13050158    -0.17100
O1407       O  0.73851638  0.29145116  0.45370612    -0.88200
C1408       C  0.69991931  0.20877988  0.46653839     0.87800
Mg1409     Mg  0.78749541  0.29807946  0.43756727     1.58100
O1410       O  0.71546981  0.24693662  0.55822234    -0.87900
O1411       O  0.70566602  0.30350900  0.50276019    -0.75300
C1412       C  0.86983661  0.20833181  0.56131213     0.92900
O1413       O  0.75636938  0.23158723  0.40589261    -0.75100
O1414       O  0.87272270  0.22023856  0.52621386    -0.82600
Mg1415     Mg  0.71178847  0.26094147  0.41623552     1.58000
C1416       C  0.75809857  0.20217150  0.65444692     0.92800
O1417       O  0.66529953  0.28856559  0.42126664    -0.80900
H1418       H  0.70808745  0.28182056  0.59501149    -0.06200
C1419       C  0.78452361  0.18771965  0.52463926     0.87700
O1420       O  0.80124591  0.30575819  0.50482627    -0.75400
O1421       O  0.69969682  0.23623687  0.46992090    -0.88100
O1422       O  0.73438033  0.20261612  0.63015977    -0.80900
C1423       C  0.64578631  0.20095875  0.56435947     0.92900
C1424       C  0.64017418  0.29072625  0.44310000     0.92800
Mg1425     Mg  0.79822695  0.23726928  0.58523066     1.58000
O1426       O  0.84425853  0.21047815  0.58178555    -0.80900
O1427       O  0.75375661  0.26638181  0.59565656    -0.75100
O1428       O  0.64432531  0.22225029  0.53859219    -0.80900
O1429       O  0.72463265  0.28625836  0.35794428    -0.82700
O1430       O  0.86744615  0.27560768  0.46286295    -0.81000
C1431       C  0.72480551  0.26544340  0.58362913     0.87200
O1432       O  0.81072626  0.26185195  0.53138486    -0.88100
O1433       O  0.77217633  0.20690063  0.54657112    -0.88200
O1434       O  0.80580233  0.19430847  0.49875169    -0.75300
Mg1435     Mg  0.67766791  0.26107977  0.51876081     1.58000
O1436       O  0.67211857  0.19173024  0.57923066    -0.82700
H1437       H  0.73485271  0.33314107  0.47482066    -0.06400
O1438       O  0.79564751  0.25086667  0.44205799    -0.87900
H1439       H  0.80174884  0.21534848  0.40601155    -0.06200
H1440       H  0.81661144  0.29954487  0.56312453    -0.06400
C1441       C  0.78552322  0.23216487  0.41736233     0.87200
C1442       C  0.72658830  0.31034837  0.47649103     0.87800
C1443       C  0.81021622  0.28930971  0.53430926     0.87800
H1444       H  0.77633974  0.16491407  0.52670977    -0.06400
O1445       O  0.70926064  0.19199695  0.49548182    -0.75400
Mg1446     Mg  0.83362753  0.23687073  0.48298243     1.58000
H1447       H  0.69304024  0.19884680  0.43770426    -0.06400
C1448       C  0.75118344  0.29587933  0.34453494     0.92800
O1449       O  0.83911829  0.30510542  0.42205577    -0.82600
C1450       C  0.86598371  0.29638769  0.43632135     0.92900
O1451       O  0.63832897  0.27824142  0.47776054    -0.82600
Mg1452     Mg  0.72337482  0.19994389  0.56237100     1.58200
O1453       O  0.77576724  0.29736316  0.36792791    -0.80900
O1454       O  0.78547223  0.21119026  0.64297589    -0.82600
C1455       C  0.74811938  0.15210281  0.85421301     0.45600
H1456       H  0.75157358  0.17620196  0.85669364    -0.03400
C1457       C  0.74236378  0.09458676  0.84783040     0.45600
H1458       H  0.74052449  0.07013330  0.84676496    -0.03400
C1459       C  0.75041829  0.14034903  0.80978898    -0.17100
C1460       C  0.77368086  0.13463832  0.87821676    -0.16900
C1461       C  0.71585656  0.14093470  0.87086581    -0.17300
C1462       C  0.74675629  0.10975157  0.80616484    -0.17200
C1463       C  0.77127173  0.10422474  0.87409927    -0.16800
C1464       C  0.71278047  0.11031034  0.86632714    -0.17100
C1465       C  0.72663011  0.15773243  0.74531509    -0.05600
C1466       C  0.75194216  0.16033635  0.77327677     0.00300
C1467       C  0.77852313  0.17853970  0.76337124    -0.08300
C1468       C  0.77881148  0.19280637  0.72498006    -0.05700
C1469       C  0.75381735  0.18934132  0.69624384     0.00300
C1470       C  0.72665937  0.17183675  0.70721394    -0.08200
C1471       C  0.69779928  0.16689279  0.67926731     0.62200
H1472       H  0.70680147  0.14355891  0.75358320     0.12900
H1473       H  0.79921278  0.20624762  0.71665958     0.12900
C1474       C  0.80745965  0.18142360  0.79145024     0.62400
F1475       F  0.67484361  0.14891266  0.69691391    -0.22800
F1476       F  0.70728617  0.15304600  0.64359530    -0.20100
F1477       F  0.68333232  0.19394917  0.67061729    -0.19800
F1478       F  0.81979922  0.15356054  0.79994019    -0.19800
F1479       F  0.79897371  0.19533255  0.82734400    -0.20100
F1480       F  0.83159385  0.19810106  0.77398076    -0.22800
C1481       C  0.73392476  0.31527732  0.23165909    -0.05600
C1482       C  0.75630536  0.33806905  0.22522077     0.00300
C1483       C  0.78088125  0.34213314  0.25485828    -0.08300
C1484       C  0.77861006  0.32738115  0.29264698    -0.05700
C1485       C  0.75355367  0.30748786  0.30150011     0.00300
C1486       C  0.73161685  0.30020300  0.26941117    -0.08200
C1487       C  0.70508120  0.27749444  0.27469466     0.62200
H1488       H  0.71623426  0.31122505  0.20797243     0.12900
H1489       H  0.79666172  0.33195951  0.31575662     0.12900
C1490       C  0.81089396  0.36020607  0.24774265     0.62400
F1491       F  0.68994476  0.27095057  0.23801329    -0.22800
F1492       F  0.68222475  0.28859413  0.30097037    -0.20100
F1493       F  0.71759854  0.25118820  0.29005707    -0.19800
F1494       F  0.81254339  0.38342011  0.27549364    -0.19800
F1495       F  0.81243925  0.37158988  0.20884625    -0.20100
F1496       F  0.83728820  0.34197458  0.25323038    -0.22800
C1497       C  0.72815479  0.41675266  0.30013637    -0.05600
C1498       C  0.75022175  0.43979478  0.30489194     0.00300
C1499       C  0.77008040  0.44762091  0.27200178    -0.08300
C1500       C  0.76779738  0.43096851  0.23551142    -0.05700
C1501       C  0.74709021  0.40632673  0.23135359     0.00300
C1502       C  0.72546080  0.40030608  0.26394503    -0.08200
C1503       C  0.69723737  0.37910305  0.26276828     0.62200
H1504       H  0.71225271  0.41171383  0.32524240     0.12900
H1505       H  0.78225057  0.43728396  0.21003518     0.12900
C1506       C  0.79270953  0.47395011  0.27514242     0.62400
F1507       F  0.70022056  0.35861649  0.29409838    -0.22800
F1508       F  0.69409311  0.36389760  0.22676851    -0.20100
F1509       F  0.66933962  0.39519775  0.26848505    -0.19800
F1510       F  0.81600084  0.46830727  0.30435019    -0.19800
F1511       F  0.77578821  0.49923584  0.28604351    -0.20100
F1512       F  0.80779985  0.47959715  0.23851017    -0.22800
C1513       C  0.73610422  0.05682221  0.71316317    -0.05600
C1514       C  0.76146576  0.06621116  0.68873864     0.00300
C1515       C  0.78114223  0.08976784  0.70224772    -0.08300
C1516       C  0.77607961  0.10169990  0.74113194    -0.05700
C1517       C  0.75043424  0.09305696  0.76608919     0.00300
C1518       C  0.72950143  0.07020345  0.75117114    -0.08200
C1519       C  0.69866496  0.06149096  0.77205871     0.62200
H1520       H  0.72079804  0.03930185  0.70136493     0.12900
H1521       H  0.79226350  0.11862135  0.75200535     0.12900
C1522       C  0.80632734  0.10350406  0.67499414     0.62400
F1523       F  0.67949932  0.04359747  0.74759182    -0.22800
F1524       F  0.68155387  0.08682061  0.78032599    -0.20100
F1525       F  0.70463045  0.04589301  0.80751130    -0.19800
F1526       F  0.79282699  0.11116971  0.63770943    -0.19800
F1527       F  0.83082483  0.08332046  0.66905113    -0.20100
F1528       F  0.81930764  0.12909102  0.69196150    -0.22800
C1529       C  0.62036989  0.33205008  0.40046130    -0.05600
C1530       C  0.61294737  0.30900265  0.42753563     0.00300
C1531       C  0.58033445  0.30353772  0.43691259    -0.08300
C1532       C  0.55666676  0.32204558  0.41931806    -0.05700
C1533       C  0.56408359  0.34510006  0.39202723     0.00300
C1534       C  0.59676709  0.34904782  0.38077216    -0.08200
C1535       C  0.60882847  0.36778664  0.34554242     0.62200
H1536       H  0.64520782  0.33595523  0.39272886     0.12900
H1537       H  0.53189805  0.31873019  0.42704889     0.12900
C1538       C  0.57013298  0.27793355  0.46422851     0.62400
F1539       F  0.62656150  0.34995685  0.31959810    -0.22800
F1540       F  0.62864664  0.38996426  0.36038270    -0.20100
F1541       F  0.58463884  0.38025067  0.32256800    -0.19800
F1542       F  0.58043157  0.28300605  0.50384482    -0.19800
F1543       F  0.58300803  0.25147112  0.45005962    -0.20100
F1544       F  0.53720805  0.27469573  0.46491817    -0.22800
C1545       C  0.95317306  0.31871337  0.41046967    -0.05600
C1546       C  0.94754355  0.34303012  0.38422063     0.00300
C1547       C  0.91547458  0.34840426  0.37165234    -0.08300
C1548       C  0.89049636  0.33439526  0.39208088    -0.05700
C1549       C  0.89558912  0.31115417  0.42006788     0.00300
C1550       C  0.92784323  0.30219462  0.42813973    -0.08200
C1551       C  0.93599049  0.27605872  0.45572255     0.62200
H1552       H  0.97763176  0.31347780  0.41841316     0.12900
H1553       H  0.86631241  0.34094900  0.38394921     0.12900
C1554       C  0.90635836  0.36514134  0.33344014     0.62400
F1555       F  0.96858246  0.27058753  0.45727914    -0.22800
F1556       F  0.92132581  0.25047801  0.44128547    -0.20100
F1557       F  0.92588178  0.28202311  0.49497839    -0.19800
F1558       F  0.88033984  0.35188021  0.31438860    -0.19800
F1559       F  0.93098142  0.36418570  0.30596747    -0.20100
F1560       F  0.89801620  0.39408101  0.34310059    -0.22800
C1561       C  0.90654421  0.41923852  0.44355202    -0.05600
C1562       C  0.89725204  0.44517840  0.42314558     0.00300
C1563       C  0.91763585  0.45774949  0.39385710    -0.08300
C1564       C  0.94460660  0.44140911  0.38171644    -0.05700
C1565       C  0.95166907  0.41278661  0.39756415     0.00300
C1566       C  0.93482681  0.40403872  0.43340978    -0.08200
C1567       C  0.94692845  0.38218692  0.46527222     0.62200
H1568       H  0.89224716  0.41150157  0.46891129     0.12900
H1569       H  0.95915140  0.45081481  0.35811140     0.12900
C1570       C  0.91042634  0.48800396  0.37500562     0.62400
F1571       F  0.95150584  0.39725923  0.50170565    -0.22800
F1572       F  0.47592694  0.36932862  0.46009824    -0.20100
F1573       F  0.92435417  0.36025685  0.47157047    -0.19800
F1574       F  0.91046678  0.50956237  0.40519534    -0.19800
F1575       F  0.88073532  0.48748229  0.35605880    -0.20100
F1576       F  0.93291207  0.49607924  0.34630270    -0.22800
C1577       C  0.57643243  0.43236565  0.36851740    -0.05600
C1578       C  0.55925944  0.41390820  0.39491496     0.00300
C1579       C  0.56500860  0.41617360  0.43744908    -0.08300
C1580       C  0.59188158  0.43221059  0.45128009    -0.05700
C1581       C  0.61187138  0.44743648  0.42413753     0.00300
C1582       C  0.60322552  0.44866011  0.38205584    -0.08200
C1583       C  0.62229380  0.46633234  0.35106261     0.62200
H1584       H  0.56977258  0.43254843  0.33650784     0.12900
H1585       H  0.59746319  0.43298689  0.48359915     0.12900
C1586       C  0.54112362  0.40468257  0.46806917     0.62400
F1587       F  0.60637901  0.46847560  0.31393458    -0.22800
F1588       F  0.65130549  0.45238287  0.34425358    -0.20100
F1589       F  0.62752791  0.49499036  0.36522201    -0.19800
F1590       F  0.53835867  0.37416843  0.46521836    -0.19800
F1591       F  0.01151141  0.41918228  0.45757037    -0.20100
F1592       F  0.54988494  0.41156178  0.50781722    -0.22800
C1593       C  0.67715068  0.14858169  0.92822594    -0.05600
C1594       C  0.69117761  0.16033435  0.89252035     0.00300
C1595       C  0.67895509  0.18821310  0.87742573    -0.08300
C1596       C  0.65114787  0.20028159  0.89521185    -0.05700
C1597       C  0.63533380  0.18609460  0.92707170     0.00300
C1598       C  0.64885852  0.16043754  0.94488765    -0.08200
C1599       C  0.63276833  0.14549464  0.98074687     0.62200
H1600       H  0.68762987  0.12889678  0.94195127     0.12900
H1601       H  0.64080784  0.22081228  0.88370205     0.12900
C1602       C  0.69380852  0.20575028  0.84278486     0.62400
F1603       F  0.65007550  0.12123617  0.99491715    -0.22800
F1604       F  0.60270168  0.13568190  0.96904084    -0.20100
F1605       F  0.62968722  0.16570990  0.01240598    -0.19800
F1606       F  0.67415010  0.22863160  0.82921840    -0.19800
F1607       F  0.69898667  0.18750142  0.80997730    -0.20100
F1608       F  0.72213602  0.21862577  0.85562214    -0.22800
C1609       C  0.82264678  0.18483574  0.94918892    -0.05600
C1610       C  0.85379089  0.17873204  0.93570369     0.00300
C1611       C  0.85853792  0.15524679  0.90726172    -0.08300
C1612       C  0.83168874  0.14236588  0.88866112    -0.05700
C1613       C  0.80049235  0.14967130  0.90027292     0.00300
C1614       C  0.79590102  0.16985262  0.93303576    -0.08200
C1615       C  0.76343097  0.17522733  0.95196213     0.62200
H1616       H  0.81917466  0.20192048  0.97210640     0.12900
H1617       H  0.83505395  0.12622358  0.86463493     0.12900
C1618       C  0.89130982  0.14273499  0.89697232     0.62400
F1619       F  0.76612600  0.18917898  0.98955768    -0.22800
F1620       F  0.74794956  0.14840555  0.95798032    -0.20100
F1621       F  0.74526075  0.19331562  0.92689921    -0.19800
F1622       F  0.90950523  0.13926882  0.93213268    -0.19800
F1623       F  0.90675083  0.16154129  0.87022678    -0.20100
F1624       F  0.88885675  0.11495739  0.87876942    -0.22800
C1625       C  0.69118586  0.31286436  0.09920507    -0.05600
C1626       C  0.68465767  0.34071823  0.11761383     0.00300
C1627       C  0.65149484  0.34856767  0.12143561    -0.08300
C1628       C  0.62833547  0.33242499  0.09945819    -0.05700
C1629       C  0.63562884  0.30628717  0.07840824     0.00300
C1630       C  0.66732279  0.29534348  0.08006678    -0.08200
C1631       C  0.67577767  0.26496869  0.06266183     0.62200
H1632       H  0.71525188  0.30457127  0.09923173     0.12900
H1633       H  0.60352153  0.33956957  0.10065302     0.12900
C1634       C  0.63734540  0.37127176  0.15030574     0.62400
F1635       F  0.70625925  0.25603972  0.07402668    -0.22800
F1636       F  0.67419324  0.26599958  0.02051907    -0.20100
F1637       F  0.65467321  0.24367649  0.07679074    -0.19800
F1638       F  0.62170117  0.39306092  0.12804771    -0.19800
F1639       F  0.65940849  0.38443200  0.17526670    -0.20100
F1640       F  0.61534873  0.35727389  0.17517154    -0.22800
C1641       C  0.82427614  0.30542045  0.05952646    -0.05600
C1642       C  0.85520508  0.31423292  0.07169515     0.00300
C1643       C  0.85797504  0.34141837  0.09339825    -0.08300
C1644       C  0.83099624  0.35257241  0.11324178    -0.05700
C1645       C  0.79992310  0.34487808  0.10094274     0.00300
C1646       C  0.79693876  0.32244576  0.07018646    -0.08200
C1647       C  0.76715733  0.31726370  0.04476785     0.62200
H1648       H  0.82153406  0.28632122  0.03952213     0.12900
H1649       H  0.83462352  0.36929768  0.13626149     0.12900
C1650       C  0.88590297  0.36288571  0.09020214     0.62400
F1651       F  0.77463277  0.32048348  0.00393136    -0.22800
F1652       F  0.74308610  0.33733044  0.05324852    -0.20100
F1653       F  0.75640739  0.28855067  0.05087895    -0.19800
F1654       F  0.87533628  0.38773080  0.06948993    -0.19800
F1655       F  0.91188298  0.35246365  0.06880798    -0.20100
F1656       F  0.89559473  0.37149346  0.12867696    -0.22800
C1657       C  0.51872488  0.30050230  0.22765397    -0.05600
C1658       C  0.99667720  0.31220739  0.19469283     0.00300
C1659       C  0.97637425  0.33673402  0.20343243    -0.08300
C1660       C  0.97985423  0.35149322  0.24100096    -0.05700
C1661       C  0.50486539  0.34276879  0.27199376     0.00300
C1662       C  0.52311450  0.31614588  0.26458297    -0.08200
C1663       C  0.54853628  0.30386913  0.29302188     0.62200
H1664       H  0.53197830  0.28011488  0.22216441     0.12900
H1665       H  0.96429629  0.36995028  0.24773092     0.12900
C1666       C  0.95147484  0.34811134  0.17338106     0.62400
F1667       F  0.57151412  0.28781821  0.27202626    -0.22800
F1668       F  0.53494027  0.28519536  0.32153520    -0.20100
F1669       F  0.56423783  0.32668164  0.31181358    -0.19800
F1670       F  0.92839595  0.32647565  0.16718258    -0.19800
F1671       F  0.96576867  0.35526600  0.13673771    -0.20100
F1672       F  0.93632072  0.37348302  0.18764902    -0.22800
C1673       C  0.57133319  0.15331177  0.57529636    -0.05600
C1674       C  0.56353173  0.15825917  0.61657648     0.00300
C1675       C  0.58185272  0.17945407  0.63925986    -0.08300
C1676       C  0.60801990  0.19330982  0.62032778    -0.05700
C1677       C  0.61610188  0.18742500  0.57979367     0.00300
C1678       C  0.59738091  0.16748577  0.55653905    -0.08200
C1679       C  0.60550352  0.16079056  0.51248049     0.62200
H1680       H  0.55682279  0.13794163  0.55773989     0.12900
H1681       H  0.62270199  0.20902350  0.63718108     0.12900
C1682       C  0.57529208  0.18709038  0.68345869     0.62400
F1683       F  0.63636311  0.14974183  0.51023204    -0.22800
F1684       F  0.60327283  0.18666649  0.48970210    -0.20100
F1685       F  0.58498188  0.13990897  0.49549963    -0.19800
F1686       F  0.60031599  0.20264493  0.70140268    -0.19800
F1687       F  0.08482945  0.15497327  0.70260904    -0.20100
F1688       F  0.54822689  0.20459588  0.68635657    -0.22800
C1689       C  0.92762537  0.20585141  0.57694117    -0.05600
C1690       C  0.89737887  0.19277063  0.58022461     0.00300
C1691       C  0.89392340  0.16611697  0.60280981    -0.08300
C1692       C  0.92086513  0.15424380  0.62269752    -0.05700
C1693       C  0.95183054  0.16523653  0.61593516     0.00300
C1694       C  0.95521108  0.19262075  0.59411931    -0.08200
C1695       C  0.98696622  0.20844991  0.58837436     0.62200
H1696       H  0.92937777  0.22677584  0.56063558     0.12900
H1697       H  0.91815999  0.13471266  0.64173206     0.12900
C1698       C  0.86279283  0.14866117  0.60306339     0.62400
F1699       F  0.98452389  0.23175117  0.56078393    -0.22800
F1700       F  0.50980773  0.18445642  0.57169831    -0.20100
F1701       F  0.99729225  0.22039937  0.62500788    -0.19800
F1702       F  0.85163216  0.14502564  0.56348343    -0.19800
F1703       F  0.84009727  0.16349410  0.62581955    -0.20100
F1704       F  0.86693115  0.12053925  0.61965865    -0.22800
C1705       C  0.93864148  0.07426260  0.61935891    -0.05600
C1706       C  0.95267145  0.09773983  0.59749848     0.00300
C1707       C  0.94103194  0.10417341  0.55728178    -0.08300
C1708       C  0.91477426  0.08788706  0.54209703    -0.05700
C1709       C  0.90031427  0.06535030  0.56488173     0.00300
C1710       C  0.91305420  0.05759545  0.60357751    -0.08200
C1711       C  0.90040518  0.03123319  0.62772727     0.62200
H1712       H  0.94738564  0.06943504  0.64984080     0.12900
H1713       H  0.90517190  0.09306127  0.51204917     0.12900
C1714       C  0.95468142  0.12711560  0.52820399     0.62400
F1715       F  0.91947910  0.02490682  0.66138696    -0.22800
F1716       F  0.89966513  0.00610564  0.60320575    -0.20100
F1717       F  0.86993512  0.03724450  0.64151946    -0.19800
F1718       F  0.96365552  0.11303620  0.49246223    -0.19800
F1719       F  0.98098181  0.14182909  0.54345583    -0.20100
F1720       F  0.93140668  0.14802323  0.51883226    -0.22800
C1721       C  0.59172355  0.09305355  0.63602060    -0.05600
C1722       C  0.56292486  0.09059069  0.61407165     0.00300
C1723       C  0.56181588  0.07193116  0.57890221    -0.08300
C1724       C  0.59041057  0.05891140  0.56512431    -0.07300
C1725       C  0.61944636  0.06241987  0.58622785     0.00300
C1726       C  0.61964028  0.07813330  0.62404194    -0.08200
C1727       C  0.64833659  0.07830524  0.65298095     0.62200
H1728       H  0.59203536  0.10668355  0.66333255     0.12900
H1729       H  0.59034707  0.04592035  0.53727292     0.12900
C1730       C  0.53142852  0.06647239  0.55451968     0.62400
F1731       F  0.64024060  0.08859852  0.69142520    -0.22800
F1732       F  0.67202233  0.09664166  0.63799139    -0.20100
F1733       F  0.66011592  0.04963479  0.65760919    -0.19800
F1734       F  0.53714297  0.05126448  0.51850656    -0.19800
F1735       F  0.51779495  0.09329763  0.54438825    -0.20100
F1736       F  0.51022147  0.04964771  0.57681618    -0.22800
C1737       C  0.97831654  0.17271140  0.73973848    -0.05600
C1738       C  0.50041679  0.15061445  0.73468232     0.00300
C1739       C  0.52026699  0.14412206  0.76901666    -0.08300
C1740       C  0.51444761  0.15875067  0.80593343    -0.05700
C1741       C  0.99182367  0.17878547  0.81187840     0.00300
C1742       C  0.97301272  0.18723584  0.77739759    -0.08200
C1743       C  0.94789494  0.21166817  0.77968209     0.62200
H1744       H  0.96350829  0.17817953  0.71349737     0.12900
H1745       H  0.52945788  0.15313143  0.83199808     0.12900
C1746       C  0.54891577  0.12331909  0.76955432     0.62400
F1747       F  0.93611916  0.21921828  0.74141816    -0.22800
F1748       F  0.96107063  0.23706978  0.79686185    -0.20100
F1749       F  0.92246457  0.20217529  0.80301347    -0.19800
F1750       F  0.57545522  0.13934838  0.78204466    -0.19800
F1751       F  0.55573723  0.11086914  0.73227886    -0.20100
F1752       F  0.54381924  0.10062852  0.79728434    -0.22800
C1753       C  0.79956306  0.08469087  0.93571833    -0.05600
C1754       C  0.79492456  0.08296666  0.89320638     0.00300
C1755       C  0.81642462  0.06531142  0.86991739    -0.08300
C1756       C  0.84168888  0.05063371  0.88995801    -0.05700
C1757       C  0.84763503  0.05399807  0.93185615     0.00300
C1758       C  0.82610423  0.07129600  0.95543775    -0.08200
C1759       C  0.83204140  0.07737978  0.00043359     0.62200
H1760       H  0.78313125  0.09830041  0.95305068     0.12900
H1761       H  0.85794953  0.03694326  0.87246067     0.12900
C1762       C  0.81485739  0.06359164  0.82381926     0.62400
F1763       F  0.81012463  0.09745726  0.01610173    -0.22800
F1764       F  0.86227598  0.08934478  0.00581867    -0.20100
F1765       F  0.82958581  0.05121665  0.02244502    -0.19800
F1766       F  0.81715934  0.09194513  0.80814702    -0.19800
F1767       F  0.78662857  0.05033740  0.81161814    -0.20100
F1768       F  0.83965986  0.04700540  0.80752138    -0.22800
C1769       C  0.62706437  0.08388415  0.88252850    -0.05600
C1770       C  0.63156377  0.06037137  0.91038332     0.00300
C1771       C  0.66347245  0.05220773  0.92149814    -0.08300
C1772       C  0.68904815  0.06892981  0.90549655    -0.05700
C1773       C  0.68410206  0.09276333  0.87836714     0.00300
C1774       C  0.65243336  0.09964115  0.86544764    -0.08200
C1775       C  0.64299672  0.12241993  0.83319795     0.62200
H1776       H  0.60306623  0.09009861  0.87300136     0.12900
H1777       H  0.71338685  0.06393991  0.91485281     0.12900
C1778       C  0.67108219  0.02624809  0.94984933     0.62400
F1779       F  0.62539717  0.10819716  0.80306863    -0.22800
F1780       F  0.66851433  0.13595717  0.81460577    -0.20100
F1781       F  0.62405514  0.14420089  0.85062236    -0.19800
F1782       F  0.66129395  0.50406896  0.94773212    -0.19800
F1783       F  0.65841423  0.03158903  0.98804062    -0.20100
F1784       F  0.70371447  0.02196830  0.95475915    -0.22800
C1785       C  0.50375543  0.04603513  0.77520561    -0.05600
C1786       C  0.98202350  0.05534111  0.79771623     0.00300
C1787       C  0.96187678  0.07904729  0.78504163    -0.08300
C1788       C  0.96696012  0.09222642  0.74661938    -0.05700
C1789       C  0.99243806  0.08366331  0.72126064     0.00300
C1790       C  0.50833944  0.05777965  0.73565053    -0.08200
C1791       C  0.53149983  0.04180800  0.70768632     0.62200
H1792       H  0.51833291  0.02764641  0.78604410     0.12900
H1793       H  0.95215169  0.11082267  0.73706989     0.12900
C1794       C  0.93667348  0.09184006  0.81317822     0.62400
F1795       F  0.54833163  0.01954915  0.72780739    -0.22800
F1796       F  0.55355215  0.06138134  0.69235283    -0.20100
F1797       F  0.51472249  0.02850644  0.67608765    -0.19800
F1798       F  0.95091258  0.10080622  0.84943638    -0.19800
F1799       F  0.91377773  0.07044840  0.82112600    -0.20100
F1800       F  0.92134986  0.11632025  0.79621469    -0.22800
C1801       C  0.81983574  0.42326995  0.13882113    -0.05600
C1802       C  0.79788694  0.41322373  0.10921720     0.00300
C1803       C  0.80223987  0.42197970  0.06812005    -0.08300
C1804       C  0.83016901  0.43790651  0.05769433    -0.05700
C1805       C  0.85397331  0.44471478  0.08693114     0.00300
C1806       C  0.84811093  0.43834977  0.12854500    -0.08200
C1807       C  0.87146847  0.44727338  0.16219224     0.62200
H1808       H  0.81632502  0.41664697  0.16988118     0.12900
H1809       H  0.83450619  0.44362045  0.02611666     0.12900
C1810       C  0.77777942  0.41437226  0.03544565     0.62400
F1811       F  0.85876246  0.44286375  0.20061090    -0.22800
F1812       F  0.87897259  0.47717115  0.15853800    -0.20100
F1813       F  0.89910847  0.43046111  0.15965903    -0.19800
F1814       F  0.74773950  0.42344391  0.04768201    -0.19800
F1815       F  0.77766077  0.38403510  0.02885542    -0.20100
F1816       F  0.78442395  0.42826891  0.99876285    -0.22800
C1817       C  0.68024277  0.40094736  0.06815438    -0.05600
C1818       C  0.68966930  0.41041345  0.10760903     0.00300
C1819       C  0.67584798  0.43722205  0.12344713    -0.08300
C1820       C  0.65225210  0.45192313  0.10013769    -0.05700
C1821       C  0.64115392  0.44086693  0.06269748     0.00300
C1822       C  0.65573760  0.41535849  0.04574960    -0.08200
C1823       C  0.64473442  0.40294315  0.00494722     0.62200
H1824       H  0.69180338  0.38153161  0.05526742     0.12900
H1825       H  0.64132385  0.47211059  0.11181790     0.12900
C1826       C  0.68400396  0.45100542  0.16472265     0.62400
F1827       F  0.65999234  0.37640066  0.99563891    -0.22800
F1828       F  0.65133707  0.42328053  0.97446967    -0.20100
F1829       F  0.61214938  0.39760384  0.00566300    -0.19800
F1830       F  0.70921147  0.47061709  0.16043478    -0.19800
F1831       F  0.69175117  0.42983170  0.19338332    -0.20100
F1832       F  0.65820660  0.46673242  0.18012632    -0.22800
C1833       C  0.53500714  0.41224183  0.25237104    -0.05600
C1834       C  0.00541694  0.41237514  0.26981084     0.00300
C1835       C  0.97941935  0.42939203  0.25332364    -0.08300
C1836       C  0.98278010  0.44367527  0.21565913    -0.05700
C1837       C  0.01030136  0.44081416  0.19225943     0.00300
C1838       C  0.53823751  0.42596604  0.21385454    -0.08200
C1839       C  0.56998465  0.42356063  0.19205083     0.62200
H1840       H  0.55496068  0.40027415  0.26555288     0.12900
H1841       H  0.96267279  0.45621633  0.20332670     0.12900
C1842       C  0.94651396  0.43178736  0.27116024     0.62400
F1843       F  0.59251035  0.40794532  0.21475935    -0.22800
F1844       F  0.58230904  0.45165742  0.18496915    -0.20100
F1845       F  0.56538886  0.40877804  0.15544367    -0.19800
F1846       F  0.93908226  0.46137385  0.27817179    -0.19800
F1847       F  0.94433346  0.41672319  0.30675787    -0.20100
F1848       F  0.92424693  0.41996778  0.24422770    -0.22800
O1849       O  0.97451050  0.54037623  0.94822160    -0.88200
C1850       C  0.93603790  0.95769723  0.96881103     0.87800
Mg1851     Mg  0.52307136  0.54797408  0.93374348     1.58100
O1852       O  0.95952357  0.99517963  0.05843749    -0.87900
O1853       O  0.94675995  0.55512703  0.00098861    -0.75300
C1854       C  0.61279928  0.95788016  0.04876713     0.92900
O1855       O  0.98922936  0.97891217  0.89979631    -0.75100
O1856       O  0.61273754  0.96841909  0.01269345    -0.82600
Mg1857     Mg  0.94361083  0.51040725  0.91564703     1.58000
C1858       C  0.51101400  0.95588336  0.15641291     0.92800
O1859       O  0.89849591  0.53925116  0.92433723    -0.80900
H1860       H  0.95559434  0.53464124  0.09473286    -0.06200
C1861       C  0.52264636  0.94027286  0.02406223     0.87700
O1862       O  0.54190911  0.55456695  0.99900557    -0.75400
O1863       O  0.93786528  0.98514969  0.97125393    -0.88100
O1864       O  0.98419236  0.94764848  0.13022628    -0.80900
C1865       C  0.88718645  0.95319154  0.07196835     0.92900
C1866       C  0.87480046  0.54223516  0.94843688     0.92800
Mg1867     Mg  0.54419104  0.99027951  0.08062749     1.58000
O1868       O  0.58920892  0.96163888  0.07261973    -0.80900
O1869       O  0.50109289  0.51656113  0.09456953    -0.75100
O1870       O  0.88641943  0.97377243  0.04513779    -0.80900
O1871       O  0.95289546  0.53434499  0.85497699    -0.82700
O1872       O  0.60246862  0.52257790  0.95044711    -0.81000
C1873       C  0.97018714  0.51725523  0.08154102     0.87200
O1874       O  0.55150162  0.50986190  0.02290778    -0.88100
O1875       O  0.51330376  0.96003640  0.04746992    -0.88200
O1876       O  0.54196615  0.94573552  0.99528241    -0.75300
Mg1877     Mg  0.91778901  0.51457112  0.02211905     1.58000
O1878       O  0.91361071  0.94276144  0.08572581    -0.82700
H1879       H  0.97503527  0.58258325  0.96788662    -0.06400
O1880       O  0.52964119  0.50038313  0.93670648    -0.87900
H1881       H  0.53311975  0.96612647  0.90277102    -0.06200
H1882       H  0.56179574  0.54672849  0.05465795    -0.06400
C1883       C  0.51835898  0.98355938  0.91553516     0.87200
C1884       C  0.96564316  0.56031709  0.97165823     0.87800
C1885       C  0.55259685  0.53726479  0.02657210     0.87800
H1886       H  0.51341650  0.91791648  0.02745175    -0.06400
O1887       O  0.94558635  0.94082627  0.99760528    -0.75400
Mg1888     Mg  0.57063791  0.98674886  0.97494146     1.58000
H1889       H  0.92676893  0.94775874  0.94106960    -0.06400
C1890       C  0.97910006  0.54212199  0.83848327     0.92800
O1891       O  0.57369940  0.55428489  0.91339761    -0.82600
C1892       C  0.60066834  0.54480107  0.92635672     0.92900
O1893       O  0.87581218  0.53213780  0.98464009    -0.82600
Mg1894     Mg  0.96531636  0.94758532  0.06281331     1.58200
O1895       O  0.50627282  0.54760444  0.86596089    -0.80900
O1896       O  0.53618048  0.96600863  0.14011261    -0.82600
C1897       C  0.00476036  0.59712507  0.64220561     0.45600
H1898       H  0.50059939  0.57128243  0.64140235    -0.03400
C1899       C  0.00779259  0.65410570  0.65581192     0.45600
H1900       H  0.00843775  0.67811446  0.66209397    -0.03400
C1901       C  0.00200877  0.60491787  0.68793144    -0.17100
C1902       C  0.53403495  0.60858448  0.63039413    -0.16900
C1903       C  0.97801934  0.61496079  0.62069030    -0.17300
C1904       C  0.50255459  0.63525144  0.69627893    -0.17200
C1905       C  0.53608586  0.63908729  0.63513762    -0.16800
C1906       C  0.97897180  0.64522320  0.62880263    -0.17100
O1907       O  0.50921391  0.78470523  0.05646232    -0.88200
C1908       C  0.54756539  0.70213176  0.04599784     0.87800
Mg1909     Mg  0.96008057  0.79114190  0.06879462     1.58100
O1910       O  0.53262824  0.73865025  0.95279713    -0.87900
O1911       O  0.54190583  0.79660565  0.00738898    -0.75300
C1912       C  0.88034071  0.69679026  0.95098706     0.92900
O1913       O  0.49184335  0.72599386  0.10631239    -0.75100
O1914       O  0.87743091  0.71013885  0.98507623    -0.82600
Mg1915     Mg  0.53626920  0.75542257  0.09481872     1.58000
C1916       C  0.98993052  0.69109529  0.85504101     0.92800
O1917       O  0.58221389  0.78340530  0.08975561    -0.80900
H1918       H  0.54036734  0.77287150  0.91510451    -0.06200
C1919       C  0.96687728  0.67933241  0.98749485     0.87700
O1920       O  0.94499573  0.79746988  0.00170244    -0.75400
O1921       O  0.54831325  0.72955766  0.04222823    -0.88100
O1922       O  0.51244311  0.69095593  0.88001858    -0.80900
C1923       C  0.60292032  0.69312581  0.95022491     0.92900
C1924       C  0.60753971  0.78507110  0.06844495     0.92800
Mg1925     Mg  0.95094047  0.72710805  0.92456630     1.58000
O1926       O  0.90567728  0.69909010  0.93002537    -0.80900
O1927       O  0.99427429  0.75694826  0.91177631    -0.75100
O1928       O  0.60330551  0.71501174  0.97504433    -0.80900
O1929       O  0.52386234  0.78332897  0.14976494    -0.82700
O1930       O  0.88256731  0.77009374  0.04022804    -0.81000
C1931       C  0.52349924  0.75683642  0.92683649     0.87200
O1932       O  0.93888752  0.75249086  0.97727978    -0.88100
O1933       O  0.97845120  0.69782400  0.96378407    -0.88200
O1934       O  0.94539940  0.68639520  0.01309491    -0.75300
Mg1935     Mg  0.57016301  0.75389743  0.99292036     1.58000
O1936       O  0.57715354  0.68294856  0.93460297    -0.82700
H1937       H  0.51233838  0.82627743  0.03491015    -0.06400
O1938       O  0.95408581  0.74418450  0.06608991    -0.87900
H1939       H  0.95031633  0.70915402  0.10348507    -0.06200
H1940       H  0.93007188  0.78887281  0.94375539    -0.06400
C1941       C  0.96549454  0.72637965  0.09117269     0.87200
C1942       C  0.52089212  0.80353803  0.03351632     0.87800
C1943       C  0.93737475  0.77980671  0.97295237     0.87800
H1944       H  0.97584880  0.65670767  0.98714203    -0.06400
O1945       O  0.53845217  0.68517717  0.01708162    -0.75400
Mg1946     Mg  0.91623825  0.72903085  0.02631397     1.58000
H1947       H  0.55385671  0.69236231  0.07514792    -0.06400
C1948       C  0.99762536  0.79409603  0.15815195     0.92800
O1949       O  0.90854675  0.79643670  0.08719501    -0.82600
C1950       C  0.88338388  0.79122766  0.06644313     0.92900
O1951       O  0.60979500  0.77205160  0.03407013    -0.82600
Mg1952     Mg  0.52482516  0.69122042  0.94944794     1.58200
O1953       O  0.97225308  0.79127090  0.13692032    -0.80900
O1954       O  0.96326070  0.70094341  0.86753705    -0.82600
C1955       C  0.00409139  0.90573710  0.35383976     0.45600
H1956       H  0.50642637  0.93205294  0.35747309    -0.03400
C1957       C  0.00433330  0.84796650  0.35435185     0.45600
H1958       H  0.00357423  0.82348041  0.35538445    -0.03400
C1959       C  0.00415219  0.89159288  0.31025715    -0.17100
C1960       C  0.53434642  0.89379521  0.37891361    -0.16900
C1961       C  0.97505976  0.89233510  0.37666016    -0.17300
C1962       C  0.50572034  0.86320877  0.31254241    -0.17200
C1963       C  0.53540859  0.86310431  0.37682833    -0.16800
C1964       C  0.97396352  0.86148370  0.37402974    -0.17100
O1965       O  0.77325632  0.54930091  0.53970874    -0.88200
C1966       C  0.81511103  0.96778997  0.52720439     0.87800
Mg1967     Mg  0.72488530  0.55494826  0.55754844     1.58100
O1968       O  0.79550961  0.00340632  0.43473521    -0.87900
O1969       O  0.80432198  0.56227615  0.48941786    -0.75300
C1970       C  0.64131511  0.96102345  0.44354809     0.92900
O1971       O  0.76041907  0.98867265  0.58986301    -0.75100
O1972       O  0.64016519  0.97270131  0.47896426    -0.82600
Mg1973     Mg  0.80139868  0.52016644  0.57773376     1.58000
C1974       C  0.75011530  0.95471473  0.34419308     0.92800
O1975       O  0.84652530  0.54832061  0.57216534    -0.80900
H1976       H  0.79995570  0.53832091  0.39826999    -0.06200
C1977       C  0.72984804  0.94226187  0.47414551     0.87700
O1978       O  0.70862088  0.56180191  0.49124891    -0.75400
O1979       O  0.81370149  0.99510951  0.52273738    -0.88100
O1980       O  0.77602999  0.95512371  0.36484191    -0.80900
C1981       C  0.86634335  0.95902367  0.43146157     0.92900
C1982       C  0.87130464  0.55038307  0.55009114     0.92800
Mg1983     Mg  0.71160066  0.99067379  0.41496814     1.58000
O1984       O  0.66633207  0.96224487  0.42166360    -0.80900
O1985       O  0.75492724  0.52171176  0.40130718    -0.75100
O1986       O  0.86641458  0.98165421  0.45485321    -0.80900
O1987       O  0.78941416  0.54588783  0.63491606    -0.82700
O1988       O  0.64549943  0.52956226  0.54097639    -0.81000
C1989       C  0.78440300  0.52159598  0.41110760     0.87200
O1990       O  0.69935699  0.51708322  0.46748517    -0.88100
O1991       O  0.74078378  0.96170343  0.45158327    -0.88200
O1992       O  0.70909033  0.94835377  0.50095355    -0.75300
Mg1993     Mg  0.83324514  0.52022422  0.47450134     1.58000
O1994       O  0.84091642  0.94830419  0.41583385    -0.82700
H1995       H  0.77470629  0.59106148  0.51848052    -0.06400
O1996       O  0.71800585  0.50731597  0.55492062    -0.87900
H1997       H  0.71589138  0.97089444  0.59263420    -0.06200
H1998       H  0.69059504  0.55377544  0.43462437    -0.06400
C1999       C  0.73097680  0.98809331  0.58005349     0.87200
C2000       C  0.78388056  0.56855011  0.51653769     0.87800
C2001       C  0.69868222  0.54444389  0.46333489     0.87800
H2002       H  0.73873200  0.91967846  0.47167609    -0.06400
O2003       O  0.80572518  0.95000049  0.49949503    -0.75400
Mg2004     Mg  0.68047772  0.99018419  0.51880515     1.58000
H2005       H  0.82340415  0.95883753  0.55604509    -0.06400
C2006       C  0.76249467  0.55474640  0.64790618     0.92800
O2007       O  0.67476357  0.56178220  0.57626805    -0.82600
C2008       C  0.64784737  0.55123825  0.56619321     0.92900
O2009       O  0.87277101  0.53904249  0.51455600    -0.82600
Mg2010     Mg  0.78944485  0.95573495  0.43308647     1.58200
O2011       O  0.73753554  0.55452644  0.62548904    -0.80900
O2012       O  0.72379549  0.96427085  0.35847218    -0.82600
C2013       C  0.74568765  0.84545865  0.14572562     0.45600
H2014       H  0.74729442  0.82084765  0.14488819    -0.03400
C2015       C  0.74468444  0.90319796  0.15030669     0.45600
H2016       H  0.74497830  0.92784651  0.15204642    -0.03400
C2017       C  0.75025049  0.85701095  0.18958745    -0.17100
C2018       C  0.77295599  0.86047192  0.12104705    -0.16900
C2019       C  0.71300561  0.85930799  0.13094183    -0.17300
C2020       C  0.74768146  0.88758478  0.19247940    -0.17200
C2021       C  0.77251318  0.89123859  0.12438453    -0.16800
C2022       C  0.71383526  0.89039959  0.13078483    -0.17100
O2023       O  0.73673746  0.78652579  0.45039267    -0.88200
C2024       C  0.69954865  0.70370419  0.46140855     0.87800
Mg2025     Mg  0.78591759  0.79342398  0.43442388     1.58100
O2026       O  0.71323892  0.74180446  0.55345335    -0.87900
O2027       O  0.70278109  0.79847290  0.49817599    -0.75300
C2028       C  0.86884518  0.70706156  0.56243437     0.92900
O2029       O  0.75563339  0.72738699  0.40249330    -0.75100
O2030       O  0.87182230  0.71795938  0.52664741    -0.82600
Mg2031     Mg  0.71031214  0.75633504  0.41220594     1.58000
C2032       C  0.75528937  0.70009969  0.65169308     0.92800
O2033       O  0.66320364  0.78372710  0.41701674    -0.80900
H2034       H  0.70467056  0.77728849  0.58864676    -0.06200
C2035       C  0.78470860  0.68368517  0.52283158     0.87700
O2036       O  0.79947541  0.80213812  0.50133397    -0.75400
O2037       O  0.69807594  0.73111094  0.46502928    -0.88100
O2038       O  0.73322246  0.69635336  0.62545130    -0.80900
C2039       C  0.64490371  0.69486093  0.55866788     0.92900
C2040       C  0.63773400  0.78543594  0.43835473     0.92800
Mg2041     Mg  0.79587679  0.73491544  0.58239555     1.58000
O2042       O  0.84281155  0.70909726  0.58204931    -0.80900
O2043       O  0.75077336  0.76320890  0.59011141    -0.75100
O2044       O  0.64296675  0.71621048  0.53308444    -0.80900
O2045       O  0.72312140  0.78236408  0.35493890    -0.82700
O2046       O  0.86580134  0.77263185  0.46152502    -0.81000
C2047       C  0.72191598  0.76106081  0.57816580     0.87200
O2048       O  0.80892511  0.75843604  0.52834164    -0.88100
O2049       O  0.77144490  0.70299738  0.54363700    -0.88200
O2050       O  0.80619325  0.69027690  0.49726887    -0.75300
Mg2051     Mg  0.67537098  0.75549293  0.51366607     1.58000
O2052       O  0.67141384  0.68564565  0.57301979    -0.82700
H2053       H  0.73225771  0.82828472  0.47102942    -0.06400
O2054       O  0.79473450  0.74632039  0.43951583    -0.87900
H2055       H  0.80091475  0.71080463  0.40344629    -0.06200
H2056       H  0.81508551  0.79630872  0.55958918    -0.06400
C2057       C  0.78468506  0.72767280  0.41464320     0.87200
C2058       C  0.72422558  0.80541838  0.47264875     0.87800
C2059       C  0.80855910  0.78589936  0.53093750     0.87800
H2060       H  0.77709940  0.66074804  0.52552032    -0.06400
O2061       O  0.70952808  0.68712452  0.49022877    -0.75400
Mg2062     Mg  0.83291387  0.73327225  0.48139743     1.58000
H2063       H  0.69335636  0.69368819  0.43238066    -0.06400
C2064       C  0.75000320  0.79134095  0.34187987     0.92800
O2065       O  0.83758059  0.80092554  0.41899804    -0.82600
C2066       C  0.86434837  0.79304836  0.43447123     0.92900
O2067       O  0.63553248  0.77225260  0.47251929    -0.82600
Mg2068     Mg  0.72259400  0.69476336  0.55752001     1.58200
O2069       O  0.77468620  0.79176346  0.36510432    -0.80900
O2070       O  0.78209180  0.71110481  0.64131810    -0.82600
C2071       C  0.74490234  0.65383248  0.85418808     0.45600
H2072       H  0.74793754  0.67806526  0.85679041    -0.03400
C2073       C  0.73993276  0.59620673  0.84717959     0.45600
H2074       H  0.73849926  0.57172664  0.84591404    -0.03400
C2075       C  0.74627714  0.64242109  0.80941606    -0.17100
C2076       C  0.77135940  0.63656654  0.87709942    -0.16900
C2077       C  0.71329964  0.64173403  0.87189286    -0.17300
C2078       C  0.74317310  0.61175898  0.80561612    -0.17200
C2079       C  0.76911202  0.60614162  0.87274123    -0.16800
C2080       C  0.71053231  0.61120392  0.86673096    -0.17100
C2081       C  0.72127775  0.66181481  0.74623710    -0.05600
C2082       C  0.74755115  0.66265027  0.77300625     0.00300
C2083       C  0.77499767  0.67924916  0.76175179    -0.08300
C2084       C  0.77600817  0.69195558  0.72242823    -0.05700
C2085       C  0.75023997  0.68973325  0.69465678     0.00300
C2086       C  0.72132747  0.67619330  0.70819699    -0.08200
C2087       C  0.69043588  0.67622601  0.68328733     0.62200
H2088       H  0.70063261  0.64893532  0.75515320     0.12900
H2089       H  0.79751769  0.70320999  0.71274837     0.12900
C2090       C  0.80391090  0.68222963  0.78969309     0.62400
F2091       F  0.66466268  0.66627136  0.70577771    -0.22800
F2092       F  0.69351559  0.65762020  0.64992411    -0.20100
F2093       F  0.68333127  0.70491937  0.67055145    -0.19800
F2094       F  0.81465751  0.65441929  0.80101244    -0.19800
F2095       F  0.79583356  0.69837486  0.82400556    -0.20100
F2096       F  0.82904636  0.69671189  0.77090541    -0.22800
C2097       C  0.73340371  0.81264387  0.23010451    -0.05600
C2098       C  0.75511840  0.83626496  0.22517721     0.00300
C2099       C  0.77917658  0.84037696  0.25540107    -0.08300
C2100       C  0.77667505  0.82509328  0.29263987    -0.05700
C2101       C  0.75262749  0.80384360  0.29966027     0.00300
C2102       C  0.73185993  0.79607857  0.26669376    -0.08200
C2103       C  0.70813992  0.77058971  0.26959353     0.62200
H2104       H  0.71606864  0.80851409  0.20601233     0.12900
H2105       H  0.79396427  0.82999048  0.31656610     0.12900
C2106       C  0.80898838  0.85891171  0.24933851     0.62400
F2107       F  0.69560343  0.76312142  0.23168924    -0.22800
F2108       F  0.68300135  0.77858416  0.29451181    -0.20100
F2109       F  0.72322728  0.74553634  0.28522001    -0.19800
F2110       F  0.80918619  0.88259146  0.27638431    -0.19800
F2111       F  0.81164464  0.86955177  0.21011114    -0.20100
F2112       F  0.83555642  0.84131037  0.25691592    -0.22800
C2113       C  0.72697879  0.91676184  0.29961191    -0.05600
C2114       C  0.74957414  0.93940780  0.30432215     0.00300
C2115       C  0.77060886  0.94589458  0.27201725    -0.08300
C2116       C  0.76809475  0.92903842  0.23582364    -0.05700
C2117       C  0.74686978  0.90483825  0.23181914     0.00300
C2118       C  0.72479610  0.89946207  0.26411867    -0.08200
C2119       C  0.69694967  0.87777332  0.26346613     0.62200
H2120       H  0.71060065  0.91237291  0.32444898     0.12900
H2121       H  0.78318805  0.93452413  0.21056024     0.12900
C2122       C  0.79535967  0.97050335  0.27555256     0.62400
F2123       F  0.70079782  0.85736464  0.29475773    -0.22800
F2124       F  0.69363407  0.86245337  0.22754070    -0.20100
F2125       F  0.66877322  0.89334540  0.26970661    -0.19800
F2126       F  0.81795798  0.96299594  0.30485548    -0.19800
F2127       F  0.78066515  0.99695899  0.28644708    -0.20100
F2128       F  0.81114710  0.97509439  0.23910962    -0.22800
C2129       C  0.73376794  0.55820386  0.71320897    -0.05600
C2130       C  0.75973059  0.56710405  0.68952713     0.00300
C2131       C  0.77982036  0.59016121  0.70374896    -0.08300
C2132       C  0.77325631  0.60335249  0.74149233    -0.05700
C2133       C  0.74710709  0.59509867  0.76567007     0.00300
C2134       C  0.72671870  0.57177312  0.75092876    -0.08200
C2135       C  0.69604979  0.56260132  0.77176887     0.62200
H2136       H  0.71855577  0.54069260  0.70121036     0.12900
H2137       H  0.78902489  0.62049450  0.75249619     0.12900
C2138       C  0.80751061  0.60171630  0.67873954     0.62400
F2139       F  0.67729038  0.54426423  0.74741072    -0.22800
F2140       F  0.67847669  0.58766717  0.77970441    -0.20100
F2141       F  0.70225661  0.54728713  0.80740000    -0.19800
F2142       F  0.79673641  0.61013539  0.64037941    -0.19800
F2143       F  0.83045336  0.57967056  0.67505224    -0.20100
F2144       F  0.82182596  0.62626879  0.69681697    -0.22800
C2145       C  0.61884925  0.82886385  0.39889854    -0.05600
C2146       C  0.61078289  0.80446097  0.42328778     0.00300
C2147       C  0.57797422  0.79910434  0.43154817    -0.08300
C2148       C  0.55483006  0.81904481  0.41572659    -0.05700
C2149       C  0.56284479  0.84372021  0.39134455     0.00300
C2150       C  0.59584033  0.84779452  0.38127626    -0.08200
C2151       C  0.60931165  0.86951864  0.35031600     0.62200
H2152       H  0.64388142  0.83282712  0.39229674     0.12900
H2153       H  0.52998715  0.81570108  0.42295329     0.12900
C2154       C  0.56701666  0.77242422  0.45633733     0.62400
F2155       F  0.62822106  0.85413608  0.32283759    -0.22800
F2156       F  0.62846527  0.89006757  0.37020440    -0.20100
F2157       F  0.58618211  0.88409830  0.32791025    -0.19800
F2158       F  0.57622268  0.77591571  0.49668930    -0.19800
F2159       F  0.58026652  0.74652372  0.44087412    -0.20100
F2160       F  0.53407890  0.76921524  0.45522619    -0.22800
C2161       C  0.95147346  0.81743177  0.41224419    -0.05600
C2162       C  0.94593576  0.84199226  0.38627555     0.00300
C2163       C  0.91396110  0.84707417  0.37292541    -0.08300
C2164       C  0.88887753  0.83214559  0.39200799    -0.05700
C2165       C  0.89390226  0.80855919  0.41943068     0.00300
C2166       C  0.92613212  0.80007310  0.42836131    -0.08200
C2167       C  0.93417733  0.77323631  0.45475761     0.62200
H2168       H  0.97578985  0.81246051  0.42090770     0.12900
H2169       H  0.86468571  0.83844548  0.38362042     0.12900
C2170       C  0.90530527  0.86476258  0.33531503     0.62400
F2171       F  0.96679344  0.76798902  0.45674967    -0.22800
F2172       F  0.91994296  0.74796561  0.43862577    -0.20100
F2173       F  0.92348114  0.77794276  0.49407629    -0.19800
F2174       F  0.87794484  0.85364317  0.31677885    -0.19800
F2175       F  0.92933695  0.86242480  0.30706754    -0.20100
F2176       F  0.89937804  0.89403163  0.34573548    -0.22800
C2177       C  0.90534578  0.91881167  0.44268450    -0.05600
C2178       C  0.89688399  0.94484094  0.42191671     0.00300
C2179       C  0.91810916  0.95738276  0.39364502    -0.08300
C2180       C  0.94496934  0.94069676  0.38224431    -0.05700
C2181       C  0.95128119  0.91204889  0.39847830     0.00300
C2182       C  0.93373818  0.90349454  0.43374484    -0.08200
C2183       C  0.94515784  0.88163335  0.46598426     0.62200
H2184       H  0.89036765  0.91116894  0.46744868     0.12900
H2185       H  0.95980289  0.94973762  0.35866826     0.12900
C2186       C  0.91180422  0.98783508  0.37488264     0.62400
F2187       F  0.94829004  0.89656198  0.50276333    -0.22800
F2188       F  0.47373262  0.86965042  0.46125600    -0.20100
F2189       F  0.92275439  0.85934984  0.47087190    -0.19800
F2190       F  0.91014911  0.00907920  0.40540881    -0.19800
F2191       F  0.88317080  0.98741850  0.35342966    -0.20100
F2192       F  0.93578518  0.99628663  0.34842002    -0.22800
C2193       C  0.57489734  0.93382664  0.37256430    -0.05600
C2194       C  0.55932167  0.91332878  0.39788575     0.00300
C2195       C  0.56701634  0.91300363  0.44006768    -0.08300
C2196       C  0.59422970  0.92860164  0.45370849    -0.05700
C2197       C  0.61256848  0.94586506  0.42700254     0.00300
C2198       C  0.60201743  0.94964416  0.38598856    -0.08200
C2199       C  0.61936242  0.96976931  0.35613897     0.62200
H2200       H  0.56689103  0.93584587  0.34115445     0.12900
H2201       H  0.60134207  0.92749594  0.48553973     0.12900
C2202       C  0.54447510  0.89978717  0.47107206     0.62400
F2203       F  0.60205755  0.97372652  0.32032878    -0.22800
F2204       F  0.64852202  0.95725502  0.34606423    -0.20100
F2205       F  0.62421745  0.99757191  0.37341392    -0.19800
F2206       F  0.54305623  0.86923868  0.46731849    -0.19800
F2207       F  0.01409081  0.91471427  0.46749706    -0.20100
F2208       F  0.55378076  0.90636790  0.51071885    -0.22800
C2209       C  0.67774575  0.64690909  0.93249966    -0.05600
C2210       C  0.68919319  0.65977668  0.89601968     0.00300
C2211       C  0.67470595  0.68695089  0.88236293    -0.08300
C2212       C  0.64710628  0.69720726  0.90236413    -0.05700
C2213       C  0.63370819  0.68185204  0.93505341     0.00300
C2214       C  0.64958840  0.65684909  0.95147839    -0.08200
C2215       C  0.63633852  0.64042394  0.98805946     0.62200
H2216       H  0.69013404  0.62772344  0.94489936     0.12900
H2217       H  0.63502030  0.71724364  0.89201370     0.12900
C2218       C  0.68715405  0.70564112  0.84730765     0.62400
F2219       F  0.65585699  0.61693031  0.99991487    -0.22800
F2220       F  0.60645257  0.62908518  0.97849552    -0.20100
F2221       F  0.63365425  0.65984378  0.02066903    -0.19800
F2222       F  0.66587040  0.72794350  0.83608512    -0.19800
F2223       F  0.69185982  0.68825226  0.81345826    -0.20100
F2224       F  0.71539920  0.71933978  0.85865259    -0.22800
C2225       C  0.82213287  0.68557931  0.94836940    -0.05600
C2226       C  0.85309565  0.67915287  0.93433205     0.00300
C2227       C  0.85699085  0.65637617  0.90465155    -0.08300
C2228       C  0.82964840  0.64403889  0.88645573    -0.05700
C2229       C  0.79865034  0.65153971  0.89872542     0.00300
C2230       C  0.79486133  0.67133268  0.93212409    -0.08200
C2231       C  0.76279179  0.67648602  0.95218200     0.62200
H2232       H  0.81926249  0.70217016  0.97209033     0.12900
H2233       H  0.83248728  0.62805081  0.86221185     0.12900
C2234       C  0.88942289  0.64408150  0.89241564     0.62400
F2235       F  0.76617240  0.69018940  0.98986725    -0.22800
F2236       F  0.74767301  0.64953060  0.95841116    -0.20100
F2237       F  0.74395565  0.69458703  0.92791951    -0.19800
F2238       F  0.90830534  0.63913918  0.92663823    -0.19800
F2239       F  0.90444088  0.66384438  0.86660715    -0.20100
F2240       F  0.88640018  0.61710103  0.87223906    -0.22800
C2241       C  0.69071160  0.81146844  0.10148807    -0.05600
C2242       C  0.68430750  0.83976665  0.11873424     0.00300
C2243       C  0.65108962  0.84726010  0.12361866    -0.08300
C2244       C  0.62756224  0.82980133  0.10416415    -0.05700
C2245       C  0.63472392  0.80300663  0.08459194     0.00300
C2246       C  0.66673330  0.79294309  0.08463294    -0.08200
C2247       C  0.67555453  0.76255035  0.06750410     0.62200
H2248       H  0.71480636  0.80345310  0.10072930     0.12900
H2249       H  0.60265704  0.83654152  0.10613523     0.12900
C2250       C  0.63727658  0.87076493  0.15156700     0.62400
F2251       F  0.70654908  0.75445725  0.07758922    -0.22800
F2252       F  0.67277268  0.76307030  0.02542133    -0.20100
F2253       F  0.65552957  0.74089837  0.08305918    -0.19800
F2254       F  0.62146282  0.89200745  0.12848637    -0.19800
F2255       F  0.65963028  0.88437878  0.17561357    -0.20100
F2256       F  0.61547909  0.85756316  0.17751696    -0.22800
C2257       C  0.82377906  0.80171462  0.06303891    -0.05600
C2258       C  0.85490703  0.81060638  0.07402315     0.00300
C2259       C  0.85825138  0.83857120  0.09336500    -0.08300
C2260       C  0.83178813  0.85063650  0.11343892    -0.05700
C2261       C  0.80034884  0.84289162  0.10239486     0.00300
C2262       C  0.79682988  0.81956450  0.07293971    -0.08200
C2263       C  0.76700428  0.81436920  0.04768095     0.62200
H2264       H  0.82061361  0.78199371  0.04430169     0.12900
H2265       H  0.83618439  0.86779535  0.13557962     0.12900
C2266       C  0.88623749  0.85946660  0.08641612     0.62400
F2267       F  0.77458162  0.81672257  0.00678040    -0.22800
F2268       F  0.74325197  0.83493133  0.05535130    -0.20100
F2269       F  0.75583599  0.78593938  0.05475011    -0.19800
F2270       F  0.87497796  0.88380620  0.06513542    -0.19800
F2271       F  0.91054950  0.84767253  0.06313359    -0.20100
F2272       F  0.89852085  0.86902246  0.12328628    -0.22800
C2273       C  0.51850295  0.80080633  0.23227876    -0.05600
C2274       C  0.99606104  0.80896889  0.19856775     0.00300
C2275       C  0.97697632  0.83454033  0.20585290    -0.08300
C2276       C  0.97986482  0.84923625  0.24350650    -0.05700
C2277       C  0.50442083  0.84391682  0.27456181     0.00300
C2278       C  0.52378700  0.81797350  0.26762261    -0.08200
C2279       C  0.55271986  0.80981311  0.29337545     0.62200
H2280       H  0.53258716  0.78089936  0.22698514     0.12900
H2281       H  0.96455765  0.86801315  0.24951323     0.12900
C2282       C  0.95453016  0.84731593  0.17370807     0.62400
F2283       F  0.57259437  0.78955914  0.27408399    -0.22800
F2284       F  0.54393776  0.79722638  0.32990370    -0.20100
F2285       F  0.57032644  0.83501807  0.29972095    -0.19800
F2286       F  0.93000373  0.82737796  0.16614821    -0.19800
F2287       F  0.97112843  0.85277743  0.13811975    -0.20100
F2288       F  0.94098699  0.87398449  0.18607318    -0.22800
C2289       C  0.56822608  0.65129982  0.57391742    -0.05600
C2290       C  0.56228034  0.65688686  0.61558871     0.00300
C2291       C  0.58262945  0.67697939  0.63702998    -0.08300
C2292       C  0.60922553  0.68878755  0.61673322    -0.05700
C2293       C  0.61549760  0.68222844  0.57583252     0.00300
C2294       C  0.59450419  0.66371135  0.55357313    -0.08200
C2295       C  0.60033782  0.65660831  0.50900446     0.62200
H2296       H  0.55209028  0.63672921  0.55740534     0.12900
H2297       H  0.62535805  0.70379623  0.63259336     0.12900
C2298       C  0.57693667  0.68645720  0.68072444     0.62400
F2299       F  0.62998715  0.64325605  0.50480164    -0.22800
F2300       F  0.59949914  0.68262926  0.48641259    -0.20100
F2301       F  0.57741715  0.63743807  0.49324081    -0.19800
F2302       F  0.57029598  0.66204244  0.70424529    -0.19800
F2303       F  0.07173762  0.66123568  0.70558919    -0.20100
F2304       F  0.60347471  0.70027047  0.69777216    -0.22800
C2305       C  0.92714211  0.70492974  0.57675957    -0.05600
C2306       C  0.89669630  0.69265031  0.58288399     0.00300
C2307       C  0.89355219  0.66775713  0.60925858    -0.08300
C2308       C  0.92112868  0.65584650  0.62771077    -0.05700
C2309       C  0.95186853  0.66590920  0.61811356     0.00300
C2310       C  0.95498554  0.69232319  0.59431782    -0.08200
C2311       C  0.98679244  0.70786592  0.58758718     0.62200
H2312       H  0.92886835  0.72477219  0.55810173     0.12900
H2313       H  0.91909078  0.63705671  0.64826415     0.12900
C2314       C  0.86177310  0.65237192  0.61642490     0.62400
F2315       F  0.98422517  0.73047630  0.55895903    -0.22800
F2316       F  0.51012370  0.68582845  0.57506645    -0.20100
F2317       F  0.99713803  0.72060374  0.62372716    -0.19800
F2318       F  0.84650310  0.64678633  0.57959153    -0.19800
F2319       F  0.84257480  0.67010939  0.64060497    -0.20100
F2320       F  0.86596949  0.62526615  0.63589590    -0.22800
C2321       C  0.93823373  0.57480892  0.62077083    -0.05600
C2322       C  0.95151584  0.59876236  0.59913644     0.00300
C2323       C  0.93918301  0.60551569  0.55936999    -0.08300
C2324       C  0.91270733  0.58932810  0.54470671    -0.05700
C2325       C  0.89936422  0.56597035  0.56703723     0.00300
C2326       C  0.91317025  0.55760071  0.60483965    -0.08200
C2327       C  0.90265577  0.52972319  0.62737343     0.62200
H2328       H  0.94755065  0.56961784  0.65085843     0.12900
H2329       H  0.90242782  0.59484652  0.51513443     0.12900
C2330       C  0.95265718  0.62829525  0.52997761     0.62400
F2331       F  0.92279513  0.52317144  0.65994425    -0.22800
F2332       F  0.90307007  0.50560271  0.60101260    -0.20100
F2333       F  0.87212766  0.53346834  0.64237267    -0.19800
F2334       F  0.96081589  0.61415625  0.49397068    -0.19800
F2335       F  0.97947770  0.64249508  0.54452976    -0.20100
F2336       F  0.92957688  0.64953282  0.52126608    -0.22800
C2337       C  0.59070664  0.59375849  0.63591042    -0.05600
C2338       C  0.56147542  0.59013804  0.61523019     0.00300
C2339       C  0.56034590  0.57169941  0.57992497    -0.08300
C2340       C  0.58913073  0.55971054  0.56501086    -0.07300
C2341       C  0.61860868  0.56443496  0.58476363     0.00300
C2342       C  0.61918108  0.58070819  0.62221492    -0.08200
C2343       C  0.64915618  0.58415203  0.64859770     0.62200
H2344       H  0.59102125  0.60746369  0.66313896     0.12900
H2345       H  0.58880001  0.54646052  0.53738954     0.12900
C2346       C  0.52954083  0.56497941  0.55705702     0.62400
F2347       F  0.64255068  0.59673925  0.68623271    -0.22800
F2348       F  0.67086186  0.60246801  0.62933240    -0.20100
F2349       F  0.66281497  0.55650074  0.65575275    -0.19800
F2350       F  0.53500120  0.55082678  0.52018170    -0.19800
F2351       F  0.51362185  0.59106227  0.54867545    -0.20100
F2352       F  0.51044163  0.54653204  0.58009673    -0.22800
C2353       C  0.97874688  0.67194710  0.74114568    -0.05600
C2354       C  0.50061255  0.65083761  0.73687228     0.00300
C2355       C  0.52063664  0.64398130  0.77090330    -0.08300
C2356       C  0.51506255  0.65805973  0.80838973    -0.05700
C2357       C  0.99267853  0.67797753  0.81323612     0.00300
C2358       C  0.97369483  0.68648116  0.77888513    -0.08200
C2359       C  0.94873880  0.71107309  0.78130499     0.62200
H2360       H  0.96396744  0.67761229  0.71496433     0.12900
H2361       H  0.53018171  0.65196542  0.83414065     0.12900
C2362       C  0.54957688  0.62364296  0.77028527     0.62400
F2363       F  0.93594944  0.71790996  0.74331408    -0.22800
F2364       F  0.96248889  0.73671000  0.79700469    -0.20100
F2365       F  0.92384348  0.70224014  0.80596494    -0.19800
F2366       F  0.57597087  0.64018464  0.78190383    -0.19800
F2367       F  0.55583557  0.61150804  0.73267349    -0.20100
F2368       F  0.54551253  0.60071680  0.79796546    -0.22800
C2369       C  0.79582379  0.58553318  0.93476230    -0.05600
C2370       C  0.79264373  0.58495574  0.89201785     0.00300
C2371       C  0.81485003  0.56795858  0.86901813    -0.08300
C2372       C  0.84025982  0.55385251  0.88944702    -0.05700
C2373       C  0.84494179  0.55617998  0.93175670     0.00300
C2374       C  0.82160853  0.57147617  0.95528355    -0.08200
C2375       C  0.82403251  0.57386874  0.00143032     0.62200
H2376       H  0.77841965  0.59821119  0.95185589     0.12900
H2377       H  0.85740702  0.54115294  0.87196795     0.12900
C2378       C  0.81357155  0.56601404  0.82290790     0.62400
F2379       F  0.80005164  0.59163092  0.01741693    -0.22800
F2380       F  0.85310924  0.58627636  0.01248812    -0.20100
F2381       F  0.82125054  0.54585546  0.01863859    -0.19800
F2382       F  0.81610962  0.59420896  0.80686356    -0.19800
F2383       F  0.78532544  0.55286994  0.81055084    -0.20100
F2384       F  0.83834367  0.54915269  0.80706933    -0.22800
C2385       C  0.62541569  0.58275456  0.88238365    -0.05600
C2386       C  0.63013465  0.56045346  0.91191857     0.00300
C2387       C  0.66195080  0.55466800  0.92594949    -0.08300
C2388       C  0.68740366  0.57086559  0.90856139    -0.05700
C2389       C  0.68221622  0.59329996  0.87935499     0.00300
C2390       C  0.65046214  0.59922925  0.86586205    -0.08200
C2391       C  0.64050846  0.62188868  0.83380853     0.62200
H2392       H  0.60143868  0.58766363  0.87141171     0.12900
H2393       H  0.71174243  0.56700999  0.91890409     0.12900
C2394       C  0.66942533  0.53260475  0.95993243     0.62400
F2395       F  0.62327570  0.60740808  0.80355244    -0.22800
F2396       F  0.66571687  0.63603459  0.81549936    -0.20100
F2397       F  0.62105489  0.64319220  0.85144690    -0.19800
F2398       F  0.65849116  0.00018036  0.93388519    -0.19800
F2399       F  0.65255529  0.54025591  0.99457155    -0.20100
F2400       F  0.70162559  0.53242246  0.97028127    -0.22800
C2401       C  0.50270750  0.54640750  0.77652856    -0.05600
C2402       C  0.97943288  0.55357137  0.79576235     0.00300
C2403       C  0.95949764  0.57732063  0.78257658    -0.08300
C2404       C  0.96590659  0.59120929  0.74496902    -0.05700
C2405       C  0.99210658  0.58300113  0.72065925     0.00300
C2406       C  0.50758843  0.55825309  0.73715802    -0.08200
C2407       C  0.53108138  0.54244066  0.70942331     0.62200
H2408       H  0.51704355  0.52783612  0.78731555     0.12900
H2409       H  0.95142436  0.60996830  0.73519107     0.12900
C2410       C  0.93295552  0.58936058  0.80926534     0.62400
F2411       F  0.54816102  0.52048620  0.72984649    -0.22800
F2412       F  0.55294533  0.56216519  0.69400661    -0.20100
F2413       F  0.51461154  0.52882780  0.67781830    -0.19800
F2414       F  0.94541503  0.59761415  0.84685479    -0.19800
F2415       F  0.90990200  0.56765587  0.81454603    -0.20100
F2416       F  0.91824259  0.61412634  0.79218283    -0.22800
C2417       C  0.82159621  0.92117563  0.13972411    -0.05600
C2418       C  0.79906439  0.91147779  0.11051796     0.00300
C2419       C  0.80352377  0.91965736  0.06924095    -0.08300
C2420       C  0.83189520  0.93464626  0.05818420    -0.05700
C2421       C  0.85618444  0.94101977  0.08693625     0.00300
C2422       C  0.85040313  0.93522443  0.12876966    -0.08200
C2423       C  0.87449877  0.94350856  0.16189108     0.62200
H2424       H  0.81821688  0.91480589  0.17097041     0.12900
H2425       H  0.83609454  0.94006784  0.02647816     0.12900
C2426       C  0.77841921  0.91265379  0.03713009     0.62400
F2427       F  0.86178773  0.94051197  0.20056024    -0.22800
F2428       F  0.88389096  0.97285758  0.15721246    -0.20100
F2429       F  0.90101599  0.92517501  0.15959019    -0.19800
F2430       F  0.74933297  0.92448454  0.04878418    -0.19800
F2431       F  0.77555283  0.88223603  0.03273476    -0.20100
F2432       F  0.78616503  0.92446386  0.99946966    -0.22800
C2433       C  0.67997349  0.90173288  0.06946860    -0.05600
C2434       C  0.68971757  0.91022886  0.10915623     0.00300
C2435       C  0.67623468  0.93690573  0.12608383    -0.08300
C2436       C  0.65283644  0.95245085  0.10348010    -0.05700
C2437       C  0.64146932  0.94243234  0.06566404     0.00300
C2438       C  0.65575273  0.91709897  0.04763802    -0.08200
C2439       C  0.64448159  0.90558461  0.00648073     0.62200
H2440       H  0.69105174  0.88229866  0.05594914     0.12900
H2441       H  0.64229672  0.97253015  0.11607345     0.12900
C2442       C  0.68419424  0.94974708  0.16794085     0.62400
F2443       F  0.66122718  0.88041001  0.99462889    -0.22800
F2444       F  0.64884132  0.92724041  0.97704930    -0.20100
F2445       F  0.61237686  0.89833131  0.00840576    -0.19800
F2446       F  0.70838862  0.97052017  0.16438784    -0.19800
F2447       F  0.69323817  0.92818457  0.19521544    -0.20100
F2448       F  0.65776919  0.96375478  0.18465138    -0.22800
C2449       C  0.53537332  0.91330866  0.25385571    -0.05600
C2450       C  0.00619456  0.90995522  0.27148819     0.00300
C2451       C  0.98027927  0.92639400  0.25368771    -0.08300
C2452       C  0.98385866  0.93960206  0.21522692    -0.05700
C2453       C  0.01201691  0.93720651  0.19285311     0.00300
C2454       C  0.53898519  0.92820026  0.21608732    -0.08200
C2455       C  0.57089862  0.92652592  0.19454719     0.62200
H2456       H  0.55510930  0.90071214  0.26661447     0.12900
H2457       H  0.96362280  0.95134192  0.20181265     0.12900
C2458       C  0.94747564  0.92972752  0.27154631     0.62400
F2459       F  0.59270312  0.90887293  0.21550245    -0.22800
F2460       F  0.58384006  0.95477659  0.19144376    -0.20100
F2461       F  0.56661161  0.91450326  0.15603082    -0.19800
F2462       F  0.94104046  0.95955264  0.27834124    -0.19800
F2463       F  0.94495361  0.91491547  0.30731200    -0.20100
F2464       F  0.92474866  0.91836601  0.24486865    -0.22800
loop_ 
_geom_bond_atom_site_label_1 
_geom_bond_atom_site_label_2 
_geom_bond_distance 
_geom_bond_site_symmetry_2 
_ccdc_geom_bond_type 
O1           C36   1.237       .  S
O1           Mg9   2.147       .  S
O1        Mg1235   2.140       .  S
C2           O15   1.236       .  S
C2           O39   1.270   1_556  A
C2           H41   1.081       .  S
Mg3          O32   2.150   1_545  S
Mg3        O1233   2.134   1_455  S
Mg3          O47   2.317       .  S
Mg3          O43   2.248       .  S
Mg3          O14   2.293       .  S
O4          C641   1.235       .  S
O4          Mg46   2.157       .  S
O4         Mg645   2.151       .  S
O5           C36   1.271   1_554  A
O5          Mg29   2.304       .  S
C6            O8   1.273       .  A
C6           O20   1.274       .  A
C6          C589   1.486       .  S
O7         C1267   1.271       .  A
O7         Mg625   2.301       .  S
O8          Mg40   2.295   1_554  S
Mg9         O631   2.146   1_545  S
Mg9          O23   2.284       .  S
Mg9          O11   2.288       .  S
Mg9         O623   2.299   1_545  S
C10          O48   1.268       .  A
C10        O1248   1.281   1_455  A
C10        C1837   1.490       .  S
O11          C18   1.276       .  A
H12          C25   1.081       .  S
C13          O27   1.237       .  S
C13          O28   1.272   1_554  A
C13          H38   1.081       .  S
O14          C37   1.269   1_556  A
O15        Mg625   2.137       .  S
O15        Mg645   2.160   1_556  S
O16        C1242   1.281       .  A
O16         Mg46   2.324       .  S
C17          O30   1.276       .  A
C17          O22   1.272       .  A
C17         C573   1.482       .  S
C18          O45   1.273       .  A
C18         C525   1.492       .  S
Mg19         O27   2.159       .  S
Mg19        O642   2.133       .  S
Mg19         O20   2.293       .  S
Mg19         O48   2.249       .  S
Mg19        O637   2.300       .  S
O21        C1257   1.270   1_455  A
O21        Mg635   2.302   1_545  S
O22        Mg645   2.284       .  S
O23          C42   1.273       .  A
O24          C44   1.275       .  A
O24        Mg656   2.325   1_545  S
C25         O620   1.237       .  S
C25        O1253   1.271       .  A
O26          C37   1.236       .  S
O26        Mg635   2.140   1_545  S
O26        Mg656   2.163   1_544  S
O27       Mg1278   2.158   1_455  S
O28         Mg40   2.306       .  S
Mg29        O620   2.165       .  S
Mg29        O631   2.158   1_544  S
Mg29         O45   2.290   1_554  S
Mg29        O638   2.320   1_545  S
O30         Mg46   2.291       .  S
H31          C36   1.081       .  S
O32         C651   1.236       .  S
O32        Mg656   2.143       .  S
H33          C35   1.081       .  S
H34          C37   1.081       .  S
C35         O648   1.237       .  S
C35        O1239   1.272   1_455  A
O39         Mg46   2.299       .  S
Mg40        O642   2.158   1_556  S
Mg40        O648   2.155       .  S
Mg40        O640   2.322       .  S
C42        O1279   1.278       .  A
C42         C554   1.492       .  S
O43          C44   1.273       .  A
C44         C538   1.503       .  S
Mg46       O1259   2.156       .  S
O47        C1274   1.277   1_455  A
C49          C55   1.541       .  S
C49          C53   1.545       .  S
C49        C1286   1.538       .  S
C49        H1282   1.096       .  S
H50        C1281   1.098       .  S
C51          C58   1.542       .  S
C51        C1289   1.545       .  S
C51        C1288   1.546       .  S
C51          H52   1.096       .  S
C53         C557   1.521       .  S
C53        C1288   1.381       .  D
C54        C1281   1.536       .  S
C54         C490   1.491       .  S
C54          C57   1.378       .  D
C55         C474   1.496       .  S
C55          C58   1.383       .  D
C56        C1283   1.544       .  S
C56         C506   1.499       .  S
C56        C1285   1.383       .  D
C57        C1283   1.542       .  S
C57         C442   1.504       .  S
C58         C461   1.508       .  S
O59          C94   1.235       .  S
O59         Mg67   2.149       .  S
O59       Mg1293   2.151   1_455  S
C60          O73   1.235       .  S
C60          O97   1.269       .  A
C60          H99   1.081       .  S
Mg61         O90   2.121       .  S
Mg61       O1291   2.140       .  S
Mg61        O105   2.295       .  S
Mg61        O101   2.243       .  S
Mg61         O72   2.307       .  S
O62          C83   1.237       .  S
O62        Mg104   2.159       .  S
O62         Mg87   2.146       .  S
O63          C94   1.270   1_556  A
O63         Mg87   2.301       .  S
C64          O66   1.273       .  A
C64          O78   1.271       .  A
C64         C378   1.485       .  S
O65        C1325   1.272       .  A
O65         Mg67   2.305   1_655  S
O66         Mg98   2.270   1_556  S
Mg67         O73   2.136       .  S
Mg67         O81   2.264       .  S
Mg67         O69   2.299       .  S
C68         O106   1.270       .  A
C68        O1306   1.278       .  A
C68         C509   1.495       .  S
O69          C76   1.276       .  A
H70          C83   1.081       .  S
C71          O85   1.239       .  S
C71          O86   1.273   1_556  A
C71          H96   1.081       .  S
O72          C95   1.271   1_554  A
O73         Mg87   2.160   1_554  S
O74        C1300   1.276   1_455  A
O74        Mg104   2.301       .  S
C75          O88   1.272       .  A
C75          O80   1.274       .  A
C75         C365   1.472       .  S
C76         O103   1.272       .  A
C76         C397   1.488       .  S
Mg77         O84   2.130       .  S
Mg77         O85   2.158       .  S
Mg77         O78   2.282       .  S
Mg77         O79   2.300       .  S
Mg77        O106   2.272       .  S
O79        C1315   1.271       .  A
O80         Mg87   2.304       .  S
O81        C1332   1.273   1_455  A
O82         C102   1.277       .  A
O82         Mg98   2.346       .  S
C83        O1311   1.271   1_455  A
O84          C95   1.236       .  S
O84         Mg98   2.146   1_556  S
O85       Mg1336   2.152       .  S
O86         Mg98   2.309       .  S
Mg87        O103   2.279   1_556  S
O88        Mg104   2.268       .  S
H89          C94   1.081       .  S
O90          C93   1.237       .  S
O90         Mg98   2.149       .  S
H91          C93   1.081       .  S
H92          C95   1.081       .  S
C93        O1297   1.272       .  A
O97        Mg104   2.294   1_554  S
C100        O105   1.271       .  A
C100       O1313   1.271       .  A
C100        C426   1.487       .  S
O101        C102   1.267       .  A
C102        C410   1.488       .  S
Mg104      O1317   2.146   1_455  S
C107        C113   1.553       .  S
C107        C111   1.557       .  S
C107       C1344   1.526       .  S
C107       H1340   1.105       .  S
H108       C1339   1.106       .  S
C109        C116   1.553       .  S
C109       C1347   1.559       .  S
C109       C1346   1.545       .  S
C109        H110   1.104       .  S
C111        C602   1.512       .  S
C111       C1346   1.393       .  D
C112       C1339   1.528       .  S
C112        C346   1.498       .  S
C112        C115   1.376       .  D
C113        C333   1.520       .  S
C113        C116   1.388       .  D
C114       C1341   1.536       .  S
C114        C429   1.517       .  S
C114       C1343   1.389       .  D
C115       C1341   1.561       .  S
C115        C301   1.506       .  S
C116        C314   1.511       .  S
O117        C152   1.235       .  S
O117       Mg119   2.119       .  S
O117       Mg125   2.146       .  S
C118        O131   1.236       .  S
C118        O155   1.269       .  A
C118        H157   1.081       .  S
Mg119       O148   2.157       .  S
Mg119       O163   2.285       .  S
Mg119       O159   2.202       .  S
Mg119       O130   2.290       .  S
O120        C757   1.236       .  S
O120       Mg162   2.156       .  S
O120       Mg761   2.137       .  S
O121        C152   1.269       .  A
O121       Mg145   2.294       .  S
C122        O124   1.276       .  A
C122        O136   1.273       .  A
C122        C349   1.486       .  S
O123        C151   1.270       .  A
O123       Mg741   2.299       .  S
O124       Mg156   2.281       .  S
Mg125       O747   2.113   1_545  S
Mg125       O139   2.239       .  S
Mg125       O127   2.267       .  S
Mg125       O739   2.300   1_545  S
C126        O164   1.272       .  A
C126        O132   1.275       .  A
C126        C266   1.475       .  S
O127        C134   1.269       .  A
H128        C141   1.081       .  S
C129        O143   1.235       .  S
C129        O144   1.269       .  A
C129        H154   1.081       .  S
O130        C153   1.268       .  A
O131       Mg741   2.124       .  S
O131       Mg761   2.154       .  S
O132       Mg162   2.314       .  S
C133        O146   1.272       .  A
C133        O138   1.272       .  A
C133        C330   1.464       .  S
C134        O161   1.271       .  A
C134        C477   1.470       .  S
Mg135       O143   2.146       .  S
Mg135       O758   2.144       .  S
Mg135       O136   2.291       .  S
Mg135       O164   2.258       .  S
Mg135       O753   2.295       .  S
O137        C141   1.271       .  A
O137       Mg751   2.298   1_545  S
O138       Mg761   2.283       .  S
O139        C158   1.266       .  A
O140        C160   1.277       .  A
O140       Mg772   2.309   1_545  S
C141        O736   1.237       .  S
O142        C153   1.235       .  S
O142       Mg751   2.131   1_545  S
O142       Mg772   2.163   1_545  S
O143       Mg162   2.144       .  S
O144       Mg156   2.299       .  S
Mg145       O736   2.137       .  S
Mg145       O747   2.154   1_545  S
Mg145       O161   2.262       .  S
Mg145       O754   2.274   1_545  S
O146       Mg162   2.262       .  S
H147        C152   1.081       .  S
O148        C767   1.235   1_545  S
O148       Mg772   2.149   1_545  S
H149        C151   1.081       .  S
H150        C153   1.081       .  S
C151        O764   1.236       .  S
O155       Mg162   2.291       .  S
Mg156       O758   2.165       .  S
Mg156       O764   2.146       .  S
Mg156       O756   2.332       .  S
C158        O163   1.271       .  A
C158        C282   1.471       .  S
O159        C160   1.263       .  A
C160        C493   1.477       .  S
C165        C171   1.569       .  S
C165        C170   1.557       .  S
C165        C169   1.544       .  S
C165        H166   1.108       .  S
C167        C173   1.534       .  S
C167        C172   1.555       .  S
C167        C174   1.542       .  S
C167        H168   1.103       .  S
C169        C250   1.511       .  S
C169        C172   1.380       .  D
C170        C413   1.513       .  S
C170        C173   1.382       .  D
C171        C394   1.527       .  S
C171        C174   1.393       .  D
C172        C269   1.505       .  S
C173        C570   1.501       .  S
C174        C586   1.518       .  S
O175        C210   1.235       .  S
O175       Mg177   2.139       .  S
O175       Mg183   2.144       .  S
C176        O189   1.236       .  S
C176        O213   1.270       .  A
C176        H215   1.081       .  S
Mg177       O206   2.151       .  S
Mg177       O221   2.339       .  S
Mg177       O217   2.244       .  S
Mg177       O188   2.299       .  S
O178        C199   1.236       .  S
O178       Mg220   2.142       .  S
O178       Mg203   2.138       .  S
O179        C210   1.269       .  A
O179       Mg203   2.299       .  S
C180        O182   1.275       .  A
C180        O194   1.273       .  A
C180        C458   1.483       .  S
O181        C209   1.273       .  A
O181       Mg183   2.311       .  S
O182       Mg214   2.286       .  S
Mg183       O189   2.142       .  S
Mg183       O197   2.284       .  S
Mg183       O185   2.321       .  S
C184        O222   1.274       .  A
C184        O190   1.267       .  A
C184        C237   1.498       .  S
O185        C192   1.281       .  A
H186        C199   1.081       .  S
C187        O201   1.235       .  S
C187        O202   1.269       .  A
C187        H212   1.081       .  S
O188        C211   1.270       .  A
O189       Mg203   2.164       .  S
O190       Mg220   2.271       .  S
C191        O204   1.268       .  A
C191        O196   1.275       .  A
C191        C445   1.475       .  S
C192        O219   1.269       .  A
C192        C298   1.491       .  S
Mg193       O200   2.147       .  S
Mg193       O201   2.151       .  S
Mg193       O194   2.286       .  S
Mg193       O195   2.300       .  S
Mg193       O222   2.289       .  S
O195        C199   1.270       .  A
O196       Mg203   2.321       .  S
O197        C216   1.273       .  A
O198        C218   1.273       .  A
O198       Mg214   2.319       .  S
O200        C211   1.236       .  S
O200       Mg214   2.168       .  S
O201       Mg220   2.133       .  S
O202       Mg214   2.295       .  S
Mg203       O219   2.248       .  S
O204       Mg220   2.242       .  S
H205        C210   1.081       .  S
O206        C209   1.237       .  S
O206       Mg214   2.171       .  S
H207        C209   1.081       .  S
H208        C211   1.081       .  S
O213       Mg220   2.293       .  S
C216        O221   1.280       .  A
C216        C253   1.504       .  S
O217        C218   1.274       .  A
C218        C317   1.501       .  S
C223        C229   1.542       .  S
C223        C228   1.537       .  S
C223        C227   1.547       .  S
C223        H224   1.093       .  S
C225        C231   1.542       .  S
C225        C230   1.537       .  S
C225        C232   1.548       .  S
C225        H226   1.100       .  S
C227        C234   1.498       .  S
C227        C230   1.385       .  D
C228        C381   1.499       .  S
C228        C231   1.377       .  D
C229        C362   1.516       .  S
C229        C232   1.386       .  D
C230        C285   1.512       .  S
C231        C522   1.503       .  S
C232        C541   1.497       .  S
C233        H240   1.082       .  S
C233        C234   1.400       .  A
C233        C238   1.403       .  A
C234        C235   1.418       .  A
C235        C236   1.410       .  A
C235        C242   1.518       .  S
C236        H241   1.082       .  S
C236        C237   1.408       .  A
C237        C238   1.430       .  A
C238        C239   1.524       .  S
C239        F243   1.385       .  S
C239        F244   1.384       .  S
C239        F245   1.383       .  S
C242        F246   1.378       .  S
C242        F247   1.380       .  S
C242        F248   1.384       .  S
C249        H256   1.083       .  S
C249        C250   1.405       .  A
C249        C254   1.415       .  A
C250        C251   1.421       .  A
C251        C252   1.407       .  A
C251        C258   1.513       .  S
C252        H257   1.084       .  S
C252        C253   1.406       .  A
C253        C254   1.426       .  A
C254        C255   1.518       .  S
C255        F259   1.385       .  S
C255        F260   1.383       .  S
C255        F261   1.384       .  S
C258        F262   1.383       .  S
C258        F263   1.374       .  S
C258        F264   1.383       .  S
C265        H272   1.087       .  S
C265        C266   1.396       .  A
C265        C270   1.402       .  A
C266        C267   1.410       .  A
C267        C268   1.408       .  A
C267        C274   1.516       .  S
C268        H273   1.082       .  S
C268        C269   1.408       .  A
C269        C270   1.431       .  A
C270        C271   1.518       .  S
C271        F275   1.383       .  S
C271        F276   1.368       .  S
C271        F277   1.384       .  S
C274        F278   1.382       .  S
C274        F279   1.383       .  S
C274        F280   1.385       .  S
C281        H288   1.084       .  S
C281        C282   1.397       .  A
C281        C286   1.407       .  A
C282        C283   1.410       .  A
C283        C284   1.396       .  A
C283        C290   1.517       .  S
C284        H289   1.076       .  S
C284        C285   1.406       .  A
C285        C286   1.430       .  A
C286        C287   1.513       .  S
C287        F291   1.385       .  S
C287        F292   1.366       .  S
C287        F293   1.379       .  S
C290        F294   1.383       .  S
C290        F295   1.379       .  S
C290        F296   1.385       .  S
C297        H304   1.085       .  S
C297        C298   1.399       .  A
C297        C302   1.400       .  A
C298        C299   1.423       .  A
C299        C300   1.411       .  A
C299        C306   1.521       .  S
C300        H305   1.079       .  S
C300        C301   1.404       .  A
C301        C302   1.431       .  A
C302        C303   1.520       .  S
C303        F307   1.386       .  S
C303        F308   1.381       .  S
C303        F309   1.374       .  S
C306        F310   1.383       .  S
C306        F311   1.383       .  S
C306        F312   1.384       .  S
C313        H320   1.078       .  S
C313        C314   1.407       .  A
C313        C318   1.420       .  A
C314        C315   1.418       .  A
C315        C316   1.393       .  A
C315        C322   1.505       .  S
C316        H321   1.083       .  S
C316        C317   1.402       .  A
C317        C318   1.428       .  A
C318        C319   1.519       .  S
C319        F323   1.385       .  S
C319        F324   1.382       .  S
C319        F325   1.384       .  S
C322        F326   1.384       .  S
C322        F327   1.371       .  S
C322        F328   1.381       .  S
C329        H336   1.085       .  S
C329        C330   1.395       .  A
C329        C334   1.405       .  A
C330        C331   1.406       .  A
C331        C332   1.401       .  A
C331        C338   1.520       .  S
C332        H337   1.074       .  S
C332        C333   1.414       .  A
C333        C334   1.428       .  A
C334        C335   1.513       .  S
C335        F339   1.384       .  S
C335        F341   1.380       .  S
C335       F1572   1.375       .  S
C338        F342   1.383       .  S
C338        F343   1.383       .  S
C338        F344   1.384       .  S
F340       C1567   1.375       .  S
C345        H352   1.083       .  S
C345        C346   1.402       .  A
C345        C350   1.409       .  A
C346        C347   1.416       .  A
C347        C348   1.407       .  A
C347        C354   1.512       .  S
C348        H353   1.083       .  S
C348        C349   1.403       .  A
C349        C350   1.424       .  A
C350        C351   1.521       .  S
C351        F355   1.385       .  S
C351        F356   1.383       .  S
C351        F357   1.384       .  S
C354        F358   1.375       .  S
C354        F360   1.384       .  S
C354       F1591   1.382       .  S
F359       C1586   1.382       .  S
C361        H368   1.082       .  S
C361        C362   1.413       .  A
C361        C366   1.405       .  A
C362        C363   1.434       .  A
C363        C364   1.409       .  A
C363        C370   1.521       .  S
C364        H369   1.083       .  S
C364        C365   1.396       .  A
C365        C366   1.405       .  A
C366        C367   1.515       .  S
C367        F371   1.385       .  S
C367        F372   1.383       .  S
C367        F373   1.383   1_556  S
C370        F374   1.385       .  S
C370        F375   1.370       .  S
C370        F376   1.380       .  S
C377        H384   1.083       .  S
C377        C378   1.405       .  A
C377        C382   1.409       .  A
C378        C379   1.418       .  A
C379        C380   1.399       .  A
C379        C386   1.519       .  S
C380        H385   1.078       .  S
C380        C381   1.401       .  A
C381        C382   1.420       .  A
C382        C383   1.515       .  S
C383        F387   1.385       .  S
C383        F388   1.381       .  S
C383        F389   1.377       .  S
C386        F390   1.384       .  S
C386        F391   1.381       .  S
C386        F392   1.384       .  S
C393        H400   1.072       .  S
C393        C394   1.413       .  A
C393        C398   1.414       .  A
C394        C395   1.433       .  A
C395        C396   1.402       .  A
C395        C402   1.512       .  S
C396        H401   1.086       .  S
C396        C397   1.394       .  A
C397        C398   1.415       .  A
C398        C399   1.520       .  S
C399        F403   1.383       .  S
C399        F404   1.382       .  S
C399        F405   1.383       .  S
C402        F406   1.382       .  S
C402        F407   1.363       .  S
C402        F408   1.384       .  S
C409        H416   1.083       .  S
C409        C410   1.404       .  A
C409        C414   1.415       .  A
C410        C411   1.414       .  A
C411        C412   1.398       .  A
C411        C418   1.520       .  S
C412        H417   1.069       .  S
C412        C413   1.403       .  A
C413        C414   1.427       .  A
C414        C415   1.509       .  S
C415        F419   1.384       .  S
C415        F420   1.378       .  S
C415        F421   1.380       .  S
C418        F422   1.377       .  S
C418        F423   1.379       .  S
C418        F424   1.377       .  S
C425        H432   1.083       .  S
C425        C430   1.405       .  A
C425       C1658   1.395   1_455  A
C426        C427   1.415       .  A
C426       C1657   1.394       .  A
C427        C428   1.404       .  A
C427        C434   1.514       .  S
C428        H433   1.073       .  S
C428       C1661   1.406       .  A
C429        C430   1.433       .  A
C429       C1660   1.402   1_455  A
C430        C431   1.510       .  S
C431        F435   1.386       .  S
C431        F436   1.380       .  S
C431        F437   1.360       .  S
C434        F438   1.382       .  S
C434        F439   1.384       .  S
C434        F440   1.384       .  S
C441        H448   1.080       .  S
C441        C442   1.409       .  A
C441        C446   1.405       .  A
C442        C443   1.423       .  A
C443        C444   1.408       .  A
C443        C450   1.516       .  S
C444        H449   1.082       .  S
C444        C445   1.400       .  A
C445        C446   1.408       .  A
C446        C447   1.515       .  S
C447        F451   1.383       .  S
C447        F452   1.382       .  S
C447        F453   1.384       .  S
C450        F454   1.385       .  S
C450        F456   1.378       .  S
C450       F1687   1.372       .  S
F455       C1682   1.369       .  S
C457        H464   1.083       .  S
C457        C458   1.402       .  A
C457        C462   1.412       .  A
C458        C459   1.415       .  A
C459        C460   1.402       .  A
C459        C466   1.519       .  S
C460        H465   1.082       .  S
C460        C461   1.405       .  A
C461        C462   1.429       .  A
C462        C463   1.521       .  S
C463        F467   1.385       .  S
C463        F469   1.381       .  S
C463       F1700   1.375       .  S
C466        F470   1.384       .  S
C466        F471   1.381       .  S
C466        F472   1.384       .  S
F468       C1695   1.374   1_455  S
C473        H480   1.083       .  S
C473        C474   1.405       .  A
C473        C478   1.400       .  A
C474        C475   1.430       .  A
C475        C476   1.404       .  A
C475        C482   1.518       .  S
C476        H481   1.085       .  S
C476        C477   1.397       .  A
C477        C478   1.415       .  A
C478        C479   1.522       .  S
C479        F483   1.385       .  S
C479        F484   1.383       .  S
C479        F485   1.379       .  S
C482        F486   1.384       .  S
C482        F487   1.373       .  S
C482        F488   1.383       .  S
C489        H496   1.081       .  S
C489        C490   1.401       .  A
C489        C494   1.399       .  A
C490        C491   1.422       .  A
C491        C492   1.404       .  A
C491        C498   1.515       .  S
C492        H497   1.082       .  S
C492        C493   1.400       .  A
C493        C494   1.422       .  A
C494        C495   1.524       .  S
C495        F499   1.385       .  S
C495        F500   1.381       .  S
C495        F501   1.384       .  S
C498        F502   1.385       .  S
C498        F503   1.370       .  S
C498        F504   1.379       .  S
C505        H512   1.083       .  S
C505        C510   1.414       .  A
C505       C1738   1.406       .  A
C506        C507   1.422       .  A
C506       C1737   1.407   1_455  A
C507        C508   1.399       .  A
C507        C514   1.514       .  S
C508        H513   1.085       .  S
C508       C1741   1.401   1_455  A
C509        C510   1.424       .  A
C509       C1740   1.402       .  A
C510        C511   1.519       .  S
C511        F515   1.385       .  S
C511        F516   1.383       .  S
C511        F517   1.382       .  S
C514        F518   1.381       .  S
C514        F519   1.372       .  S
C514        F520   1.383       .  S
C521        H528   1.082       .  S
C521        C522   1.406       .  A
C521        C526   1.412       .  A
C522        C523   1.423       .  A
C523        C524   1.403       .  A
C523        C530   1.515       .  S
C524        H529   1.082       .  S
C524        C525   1.403       .  A
C525        C526   1.418       .  A
C526        C527   1.516   1_556  S
C527        F531   1.385       .  S
C527        F532   1.384       .  S
C527        F533   1.382       .  S
C530        F534   1.376       .  S
C530        F535   1.378       .  S
C530        F536   1.386       .  S
C537        H544   1.084       .  S
C537        C538   1.406       .  A
C537        C542   1.398       .  A
C538        C539   1.427       .  A
C539        C540   1.414       .  A
C539        C546   1.520       .  S
C540        H545   1.083       .  S
C540        C541   1.404       .  A
C541        C542   1.422       .  A
C542        C543   1.519       .  S
C543        F547   1.384       .  S
C543        F548   1.374       .  S
C543        F549   1.383       .  S
C546        F551   1.383       .  S
C546        F552   1.385       .  S
C546       F1166   1.383       .  S
F550       C1162   1.384       .  S
C553        H560   1.083       .  S
C553        C558   1.413       .  A
C553       C1786   1.401   1_455  A
C554        C555   1.417       .  A
C554       C1785   1.400       .  A
C555        C556   1.411       .  A
C555        C562   1.517       .  S
C556        H561   1.083       .  S
C556        C557   1.410       .  A
C557       C1790   1.429       .  A
C558       C1789   1.429   1_455  A
C558        C559   1.518       .  S
C559        F563   1.385       .  S
C559        F564   1.371       .  S
C559        F565   1.381       .  S
C562        F566   1.383       .  S
C562        F567   1.383       .  S
C562        F568   1.385       .  S
C569        H576   1.080       .  S
C569        C570   1.405       .  A
C569        C574   1.404       .  A
C570        C571   1.414       .  A
C571        C572   1.410       .  A
C571        C578   1.512       .  S
C572        H577   1.084       .  S
C572        C573   1.407       .  A
C573        C574   1.414       .  A
C574        C575   1.520       .  S
C575        F579   1.384       .  S
C575        F580   1.384       .  S
C575        F581   1.382       .  S
C578        F582   1.382       .  S
C578        F583   1.376       .  S
C578        F584   1.384   1_554  S
C585        H592   1.082       .  S
C585        C586   1.414       .  A
C585        C590   1.413       .  A
C586        C587   1.434       .  A
C587        C588   1.407       .  A
C587        C594   1.522       .  S
C588        H593   1.084       .  S
C588        C589   1.398       .  A
C589        C590   1.413       .  A
C590        C591   1.516       .  S
C591        F595   1.385   1_554  S
C591        F596   1.383   1_554  S
C591        F597   1.383       .  S
C594        F598   1.382       .  S
C594        F599   1.372       .  S
C594        F600   1.386       .  S
C601        H608   1.080       .  S
C601        C606   1.413       .  A
C601       C1834   1.403       .  A
C602        C603   1.431       .  A
C602       C1833   1.402       .  A
C603        C604   1.399       .  A
C603        C610   1.504       .  S
C604        H609   1.086       .  S
C604        C605   1.394       .  A
C605       C1242   1.493       .  S
C605       C1838   1.424       .  A
C606       C1837   1.423       .  A
C606        C607   1.516       .  S
C607        F611   1.383       .  S
C607        F612   1.383       .  S
C607        F613   1.384       .  S
C610        F614   1.383       .  S
C610        F615   1.351       .  S
C610        F616   1.384       .  S
O617        C652   1.236       .  S
O617      Mg1851   2.133       .  S
O617       Mg625   2.144       .  S
C618        O631   1.235       .  S
C618        O655   1.269   1_556  A
C618        H657   1.081       .  S
Mg619      O1849   2.141   1_455  S
Mg619       O648   2.152       .  S
Mg619       O663   2.317       .  S
Mg619       O659   2.255       .  S
Mg619       O630   2.296       .  S
O620       Mg662   2.163   1_545  S
O621        C652   1.270   1_554  A
O621       Mg645   2.294       .  S
C622        O624   1.271       .  A
C622        O636   1.275       .  A
C622       C1205   1.479       .  S
O623       C1883   1.270       .  A
O624       Mg656   2.277   1_554  S
Mg625       O639   2.279       .  S
Mg625       O627   2.293       .  S
C626        O664   1.270       .  A
C626       O1864   1.282   1_455  A
C626       C2453   1.500       .  S
O627        C634   1.277       .  A
H628        C641   1.081       .  S
C629        O643   1.238       .  S
C629        O644   1.273   1_554  A
C629        H654   1.081       .  S
O630        C653   1.270   1_556  A
O632       C1858   1.281       .  A
O632       Mg662   2.324       .  S
C633        O646   1.276       .  A
C633        O638   1.277       .  A
C633       C1189   1.493       .  S
C634        O661   1.270       .  A
C634       C1141   1.487       .  S
Mg635       O643   2.163       .  S
Mg635       O636   2.291       .  S
Mg635       O664   2.271       .  S
O637       C1873   1.270   1_455  A
O639        C658   1.273       .  A
O640        C660   1.275       .  A
C641       O1869   1.269       .  A
O642        C653   1.236       .  S
O643      Mg1894   2.165   1_455  S
O644       Mg656   2.309       .  S
Mg645       O661   2.271   1_554  S
O646       Mg662   2.290       .  S
H647        C652   1.081       .  S
H649        C651   1.081       .  S
H650        C653   1.081       .  S
C651       O1855   1.270   1_455  A
O655       Mg662   2.297       .  S
C658       O1895   1.278       .  A
C658       C1170   1.487       .  S
O659        C660   1.273       .  A
C660       C1154   1.503       .  S
Mg662      O1875   2.151       .  S
O663       C1890   1.276   1_455  A
C665        C671   1.544       .  S
C665       C1902   1.534       .  S
C665        C669   1.544       .  S
C665       H1898   1.097       .  S
H666       C1897   1.099       .  S
C667       C1905   1.546       .  S
C667       C1904   1.547       .  S
C667        C674   1.544       .  S
C667        H668   1.096       .  S
C669       C1173   1.514       .  S
C669       C1904   1.382       .  D
C670       C1897   1.533       .  S
C670       C1106   1.493       .  S
C670        C673   1.382       .  D
C671       C1090   1.501       .  S
C671        C674   1.387       .  D
C672       C1899   1.547       .  S
C672       C1122   1.502       .  S
C672       C1901   1.383       .  D
C673       C1899   1.543       .  S
C673       C1058   1.507       .  S
C674       C1077   1.510       .  S
O675        C710   1.235       .  S
O675      Mg1909   2.152   1_455  S
O675       Mg683   2.144       .  S
C676        O689   1.236       .  S
C676        O713   1.270       .  A
C676        H715   1.081       .  S
Mg677      O1907   2.138       .  S
Mg677       O706   2.124       .  S
Mg677       O721   2.300       .  S
Mg677       O717   2.242       .  S
Mg677       O688   2.301       .  S
O678        C699   1.236       .  S
O678       Mg720   2.154       .  S
O678       Mg703   2.144       .  S
O679        C710   1.270       .  A
O679       Mg703   2.303   1_554  S
C680        O682   1.275       .  A
C680        O694   1.272       .  A
C680        C994   1.488       .  S
O681       C1941   1.274       .  A
O681       Mg683   2.314   1_655  S
O682       Mg714   2.281   1_556  S
Mg683       O689   2.139       .  S
Mg683       O697   2.265       .  S
Mg683       O685   2.320       .  S
C684        O722   1.271       .  A
C684       O1922   1.281       .  A
C684       C1125   1.503       .  S
O685        C692   1.279       .  A
H686        C699   1.081       .  S
C687        O701   1.238       .  S
C687        O702   1.272   1_556  A
C687        H712   1.081       .  S
O688        C711   1.271   1_554  A
O689       Mg703   2.158   1_554  S
O690       C1916   1.278   1_455  A
O690       Mg720   2.314       .  S
C691        O704   1.273       .  A
C691        O696   1.275       .  A
C691        C981   1.471       .  S
C692        O719   1.272       .  A
C692       C1013   1.489       .  S
Mg693       O700   2.137       .  S
Mg693       O701   2.159       .  S
Mg693       O694   2.283       .  S
Mg693       O695   2.296       .  S
Mg693       O722   2.281       .  S
O695       C1931   1.270       .  A
O696       Mg703   2.312       .  S
O697       C1948   1.272   1_455  A
O698        C718   1.278       .  A
O698       Mg714   2.349       .  S
C699       O1927   1.270   1_455  A
O700        C711   1.236       .  S
O700       Mg714   2.151   1_556  S
O701      Mg1952   2.140       .  S
O702       Mg714   2.304       .  S
Mg703       O719   2.274   1_556  S
O704       Mg720   2.265       .  S
H705        C710   1.081       .  S
O706        C709   1.238       .  S
O706       Mg714   2.158       .  S
H707        C709   1.081       .  S
H708        C711   1.081       .  S
C709       O1913   1.273       .  A
O713       Mg720   2.297   1_554  S
C716       O1929   1.271       .  A
C716        O721   1.271       .  A
C716       C1042   1.486       .  S
O717        C718   1.268       .  A
C718       C1026   1.489       .  S
Mg720      O1933   2.148   1_455  S
C723        C729   1.554       .  S
C723       C1960   1.534       .  S
C723        C727   1.563       .  S
C723       H1956   1.106       .  S
H724       C1955   1.105       .  S
C725       C1963   1.558       .  S
C725       C1962   1.535       .  S
C725        C732   1.553       .  S
C725        H726   1.102       .  S
C727       C1218   1.515       .  S
C727       C1962   1.390       .  D
C728       C1955   1.529       .  S
C728        C962   1.504       .  S
C728        C731   1.377       .  D
C729        C949   1.523       .  S
C729        C732   1.385       .  D
C730       C1957   1.535       .  S
C730       C1045   1.515       .  S
C730       C1959   1.390       .  D
C731       C1957   1.560       .  S
C731        C917   1.502       .  S
C732        C930   1.511       .  S
O733        C768   1.237       .  S
O733       Mg735   2.126       .  S
O733       Mg741   2.148       .  S
C734        O747   1.235       .  S
C734        O771   1.268       .  A
C734        H773   1.081       .  S
Mg735       O764   2.158       .  S
Mg735       O779   2.295       .  S
Mg735       O775   2.211       .  S
Mg735       O746   2.291       .  S
O736       Mg778   2.156   1_545  S
O737        C768   1.270       .  A
O737       Mg761   2.296       .  S
C738        O740   1.277       .  A
C738        O752   1.275       .  A
C738        C965   1.490       .  S
O739        C767   1.270       .  A
O740       Mg772   2.289       .  S
Mg741       O755   2.255       .  S
Mg741       O743   2.272       .  S
C742        O780   1.272       .  A
C742        O748   1.273       .  A
C742        C882   1.472       .  S
O743        C750   1.270       .  A
H744        C757   1.081       .  S
C745        O759   1.234       .  S
C745        O760   1.268       .  A
C745        H770   1.081       .  S
O746        C769   1.268       .  A
O748       Mg778   2.299       .  S
C749        O762   1.272       .  A
C749        O754   1.270       .  A
C749        C946   1.466       .  S
C750        O777   1.271       .  A
C750       C1093   1.471       .  S
Mg751       O759   2.145       .  S
Mg751       O752   2.307       .  S
Mg751       O780   2.246       .  S
O753        C757   1.270       .  A
O755        C774   1.268       .  A
O756        C776   1.279       .  A
O758        C769   1.235       .  S
O759       Mg778   2.144       .  S
O760       Mg772   2.292       .  S
Mg761       O777   2.271       .  S
O762       Mg778   2.266       .  S
H763        C768   1.081       .  S
H765        C767   1.081       .  S
H766        C769   1.081       .  S
O771       Mg778   2.289       .  S
C774        O779   1.272       .  A
C774        C898   1.477       .  S
O775        C776   1.264       .  A
C776       C1109   1.487       .  S
C781        C787   1.568       .  S
C781        C786   1.563       .  S
C781        C785   1.543       .  S
C781        H782   1.107       .  S
C783        C789   1.530       .  S
C783        C788   1.550       .  S
C783        C790   1.545       .  S
C783        H784   1.102       .  S
C785        C866   1.508       .  S
C785        C788   1.380       .  D
C786       C1029   1.514       .  S
C786        C789   1.385       .  D
C787       C1010   1.538       .  S
C787        C790   1.393       .  D
C788        C885   1.503       .  S
C789       C1186   1.508       .  S
C790       C1202   1.509       .  S
O791        C826   1.236       .  S
O791       Mg793   2.138       .  S
O791       Mg799   2.146       .  S
C792        O805   1.236       .  S
C792        O829   1.270       .  A
C792        H831   1.081       .  S
Mg793       O822   2.151       .  S
Mg793       O837   2.348       .  S
Mg793       O833   2.246       .  S
Mg793       O804   2.304       .  S
O794        C815   1.237       .  S
O794       Mg836   2.139       .  S
O794       Mg819   2.134       .  S
O795        C826   1.270       .  A
O795       Mg819   2.300       .  S
C796        O798   1.277       .  A
C796        O810   1.272       .  A
C796       C1074   1.487       .  S
O797        C825   1.272       .  A
O797       Mg799   2.310       .  S
O798       Mg830   2.301       .  S
Mg799       O805   2.137       .  S
Mg799       O813   2.280       .  S
Mg799       O801   2.295       .  S
C800        O838   1.276       .  A
C800        O806   1.266       .  A
C800        C853   1.500       .  S
O801        C808   1.277       .  A
H802        C815   1.081       .  S
C803        O817   1.234       .  S
C803        O818   1.268       .  A
C803        H828   1.081       .  S
O804        C827   1.271       .  A
O805       Mg819   2.164       .  S
O806       Mg836   2.268       .  S
C807        O820   1.266       .  A
C807        O812   1.274       .  A
C807       C1061   1.469       .  S
C808        O835   1.269       .  A
C808        C914   1.484       .  S
Mg809       O816   2.156       .  S
Mg809       O817   2.144       .  S
Mg809       O810   2.282       .  S
Mg809       O811   2.302       .  S
Mg809       O838   2.305       .  S
O811        C815   1.271       .  A
O812       Mg819   2.317       .  S
O813        C832   1.271       .  A
O814        C834   1.273       .  A
O814       Mg830   2.312       .  S
O816        C827   1.237       .  S
O816       Mg830   2.173       .  S
O817       Mg836   2.125       .  S
O818       Mg830   2.291       .  S
Mg819       O835   2.251       .  S
O820       Mg836   2.234       .  S
H821        C826   1.081       .  S
O822        C825   1.237       .  S
O822       Mg830   2.177       .  S
H823        C825   1.081       .  S
H824        C827   1.081       .  S
O829       Mg836   2.292       .  S
C832        O837   1.282       .  A
C832        C869   1.510       .  S
O833        C834   1.274       .  A
C834        C933   1.500       .  S
C839        C845   1.541       .  S
C839        C844   1.536       .  S
C839        C843   1.546       .  S
C839        H840   1.093       .  S
C841        C847   1.547       .  S
C841        C846   1.544       .  S
C841        C848   1.544       .  S
C841        H842   1.097       .  S
C843        C850   1.500       .  S
C843        C846   1.389       .  D
C844        C997   1.505       .  S
C844        C847   1.380       .  D
C845        C978   1.510       .  S
C845        C848   1.384       .  D
C846        C901   1.523       .  S
C847       C1138   1.505       .  S
C848       C1157   1.500       .  S
C849        H856   1.081       .  S
C849        C850   1.398       .  A
C849        C854   1.402       .  A
C850        C851   1.420       .  A
C851        C852   1.412       .  A
C851        C858   1.518       .  S
C852        H857   1.082       .  S
C852        C853   1.408       .  A
C853        C854   1.431       .  A
C854        C855   1.525       .  S
C855        F859   1.385       .  S
C855        F860   1.383       .  S
C855        F861   1.383       .  S
C858        F862   1.379       .  S
C858        F863   1.380       .  S
C858        F864   1.384       .  S
C865        H872   1.083       .  S
C865        C866   1.403       .  A
C865        C870   1.416       .  A
C866        C867   1.417       .  A
C867        C868   1.407       .  A
C867        C874   1.513       .  S
C868        H873   1.084       .  S
C868        C869   1.409       .  A
C869        C870   1.431       .  A
C870        C871   1.521       .  S
C871        F875   1.385       .  S
C871        F876   1.384       .  S
C871        F877   1.383       .  S
C874        F878   1.382       .  S
C874        F879   1.374       .  S
C874        F880   1.383       .  S
C881        H888   1.086       .  S
C881        C882   1.394       .  A
C881        C886   1.397       .  A
C882        C883   1.411       .  A
C883        C884   1.411       .  A
C883        C890   1.518       .  S
C884        H889   1.076       .  S
C884        C885   1.410       .  A
C885        C886   1.429       .  A
C886        C887   1.514       .  S
C887        F891   1.382       .  S
C887        F892   1.367       .  S
C887        F893   1.385       .  S
C890        F894   1.383       .  S
C890        F895   1.384       .  S
C890        F896   1.384       .  S
C897        H904   1.083       .  S
C897        C898   1.396       .  A
C897        C902   1.411       .  A
C898        C899   1.409       .  A
C899        C900   1.400       .  A
C899        C906   1.517       .  S
C900        H905   1.076       .  S
C900        C901   1.409       .  A
C901        C902   1.435       .  A
C902        C903   1.517       .  S
C903        F907   1.386       .  S
C903        F908   1.366       .  S
C903        F909   1.379       .  S
C906        F910   1.384       .  S
C906        F911   1.382       .  S
C906        F912   1.385       .  S
C913        H920   1.085       .  S
C913        C914   1.399       .  A
C913        C918   1.397       .  A
C914        C915   1.420       .  A
C915        C916   1.409       .  A
C915        C922   1.520       .  S
C916        H921   1.076       .  S
C916        C917   1.406       .  A
C917        C918   1.429       .  A
C918        C919   1.519       .  S
C919        F923   1.385       .  S
C919        F924   1.381       .  S
C919        F925   1.374       .  S
C922        F926   1.383       .  S
C922        F927   1.383       .  S
C922        F928   1.384       .  S
C929        H936   1.078       .  S
C929        C930   1.405       .  A
C929        C934   1.417       .  A
C930        C931   1.420       .  A
C931        C932   1.394       .  A
C931        C938   1.506       .  S
C932        H937   1.083       .  S
C932        C933   1.402       .  A
C933        C934   1.428       .  A
C934        C935   1.519       .  S
C935        F939   1.384       .  S
C935        F940   1.383       .  S
C935        F941   1.383       .  S
C938        F942   1.385       .  S
C938        F943   1.373       .  S
C938        F944   1.381       .  S
C945        H952   1.085       .  S
C945        C946   1.394       .  A
C945        C950   1.405       .  A
C946        C947   1.408       .  A
C947        C948   1.404       .  A
C947        C954   1.520       .  S
C948        H953   1.075       .  S
C948        C949   1.414       .  A
C949        C950   1.429       .  A
C950        C951   1.515       .  S
C951        F955   1.384       .  S
C951       F2188   1.377       .  S
C951        F957   1.381       .  S
C954        F958   1.383   1_565  S
C954        F959   1.383       .  S
C954        F960   1.384       .  S
F956       C2183   1.377       .  S
C961        H968   1.083       .  S
C961        C962   1.404       .  A
C961        C966   1.409       .  A
C962        C963   1.421       .  A
C963        C964   1.411       .  A
C963        C970   1.516       .  S
C964        H969   1.083       .  S
C964        C965   1.403       .  A
C965        C966   1.422       .  A
C966        C967   1.520       .  S
C967        F971   1.385       .  S
C967        F972   1.383       .  S
C967        F973   1.383       .  S
C970        F974   1.374       .  S
C970       F2207   1.381       .  S
C970        F976   1.385       .  S
F975       C2202   1.380       .  S
C977        H984   1.082       .  S
C977        C978   1.412       .  A
C977        C982   1.405       .  A
C978        C979   1.432       .  A
C979        C980   1.409       .  A
C979        C986   1.522       .  S
C980        H985   1.083       .  S
C980        C981   1.396       .  A
C981        C982   1.406       .  A
C982        C983   1.516       .  S
C983        F987   1.385   1_556  S
C983        F988   1.383       .  S
C983        F989   1.383   1_556  S
C986        F990   1.385       .  S
C986        F991   1.370       .  S
C986        F992   1.379       .  S
C993       H1000   1.083       .  S
C993        C994   1.403       .  A
C993        C998   1.410       .  A
C994        C995   1.419       .  A
C995        C996   1.402       .  A
C995       C1002   1.519       .  S
C996       H1001   1.080       .  S
C996        C997   1.402       .  A
C997        C998   1.424       .  A
C998        C999   1.516       .  S
C999       F1003   1.385       .  S
C999       F1004   1.379       .  S
C999       F1005   1.378       .  S
C1002      F1006   1.384       .  S
C1002      F1007   1.382       .  S
C1002      F1008   1.384       .  S
C1009      H1016   1.070       .  S
C1009      C1010   1.415       .  A
C1009      C1014   1.416       .  A
C1010      C1011   1.437       .  A
C1011      C1012   1.405       .  A
C1011      C1018   1.509       .  S
C1012      H1017   1.086       .  S
C1012      C1013   1.391       .  A
C1013      C1014   1.414       .  A
C1014      C1015   1.519       .  S
C1015      F1019   1.382       .  S
C1015      F1020   1.383       .  S
C1015      F1021   1.383       .  S
C1018      F1022   1.381       .  S
C1018      F1023   1.360       .  S
C1018      F1024   1.384       .  S
C1025      H1032   1.084       .  S
C1025      C1026   1.404       .  A
C1025      C1030   1.417       .  A
C1026      C1027   1.412       .  A
C1027      C1028   1.394       .  A
C1027      C1034   1.517       .  S
C1028      H1033   1.067       .  S
C1028      C1029   1.401       .  A
C1029      C1030   1.428       .  A
C1030      C1031   1.507       .  S
C1031      F1035   1.384       .  S
C1031      F1036   1.378       .  S
C1031      F1037   1.379       .  S
C1034      F1038   1.379       .  S
C1034      F1039   1.380       .  S
C1034      F1040   1.375       .  S
C1041      H1048   1.083       .  S
C1041      C2274   1.396   1_455  A
C1041      C1046   1.408       .  A
C1042      C2273   1.394       .  A
C1042      C1043   1.417       .  A
C1043      C1044   1.404       .  A
C1043      C1050   1.512       .  S
C1044      H1049   1.076       .  S
C1044      C2277   1.401       .  A
C1045      C2276   1.403   1_455  A
C1045      C1046   1.435       .  A
C1046      C1047   1.516       .  S
C1047      F1051   1.386       .  S
C1047      F1052   1.379       .  S
C1047      F1053   1.366       .  S
C1050      F1054   1.383       .  S
C1050      F1055   1.384       .  S
C1050      F1056   1.385       .  S
C1057      H1064   1.077       .  S
C1057      C1058   1.410       .  A
C1057      C1062   1.403       .  A
C1058      C1059   1.426       .  A
C1059      C1060   1.408       .  A
C1059      C1066   1.515       .  S
C1060      H1065   1.084       .  S
C1060      C1061   1.398       .  A
C1061      C1062   1.406       .  A
C1062      C1063   1.517       .  S
C1063      F1067   1.384       .  S
C1063      F1068   1.382       .  S
C1063      F1069   1.385       .  S
C1066      F1070   1.385       .  S
C1066      F2303   1.371       .  S
C1066      F1072   1.380       .  S
F1071      C2298   1.380       .  S
C1073      H1080   1.083       .  S
C1073      C1074   1.402       .  A
C1073      C1078   1.414       .  A
C1074      C1075   1.417       .  A
C1075      C1076   1.403       .  A
C1075      C1082   1.518       .  S
C1076      H1081   1.082       .  S
C1076      C1077   1.404       .  A
C1077      C1078   1.431       .  A
C1078      C1079   1.520       .  S
C1079      F1083   1.385       .  S
C1079      F2316   1.374       .  S
C1079      F1085   1.381       .  S
C1082      F1086   1.384       .  S
C1082      F1087   1.382       .  S
C1082      F1088   1.383       .  S
F1084      C2311   1.377   1_455  S
C1089      H1096   1.082       .  S
C1089      C1090   1.406       .  A
C1089      C1094   1.401       .  A
C1090      C1091   1.431       .  A
C1091      C1092   1.407       .  A
C1091      C1098   1.518       .  S
C1092      H1097   1.085       .  S
C1092      C1093   1.397       .  A
C1093      C1094   1.413       .  A
C1094      C1095   1.521       .  S
C1095      F1099   1.384       .  S
C1095      F1100   1.384       .  S
C1095      F1101   1.381       .  S
C1098      F1102   1.384       .  S
C1098      F1103   1.374       .  S
C1098      F1104   1.382       .  S
C1105      H1112   1.083       .  S
C1105      C1106   1.399       .  A
C1105      C1110   1.400       .  A
C1106      C1107   1.423       .  A
C1107      C1108   1.408       .  A
C1107      C1114   1.518       .  S
C1108      H1113   1.082       .  S
C1108      C1109   1.403       .  A
C1109      C1110   1.425       .  A
C1110      C1111   1.523       .  S
C1111      F1115   1.385       .  S
C1111      F1116   1.382       .  S
C1111      F1117   1.384       .  S
C1114      F1118   1.384       .  S
C1114      F1119   1.373       .  S
C1114      F1120   1.379       .  S
C1121      H1128   1.083       .  S
C1121      C2354   1.407       .  A
C1121      C1126   1.418       .  A
C1122      C2353   1.407   1_455  A
C1122      C1123   1.423       .  A
C1123      C1124   1.400       .  A
C1123      C1130   1.514       .  S
C1124      H1129   1.085       .  S
C1124      C2357   1.401   1_455  A
C1125      C2356   1.402       .  A
C1125      C1126   1.427       .  A
C1126      C1127   1.519       .  S
C1127      F1131   1.385       .  S
C1127      F1132   1.383       .  S
C1127      F1133   1.382       .  S
C1130      F1134   1.381       .  S
C1130      F1135   1.372       .  S
C1130      F1136   1.383       .  S
C1137      H1144   1.083       .  S
C1137      C1138   1.410       .  A
C1137      C1142   1.414       .  A
C1138      C1139   1.423       .  A
C1139      C1140   1.400       .  A
C1139      C1146   1.514       .  S
C1140      H1145   1.083       .  S
C1140      C1141   1.399       .  A
C1141      C1142   1.418       .  A
C1142      C1143   1.517   1_556  S
C1143      F1147   1.385       .  S
C1143      F1148   1.384       .  S
C1143      F1149   1.383       .  S
C1146      F1150   1.375       .  S
C1146      F1151   1.378       .  S
C1146      F1152   1.385       .  S
C1153      H1160   1.084       .  S
C1153      C1154   1.407       .  A
C1153      C1158   1.400       .  A
C1154      C1155   1.428       .  A
C1155      C1156   1.414       .  A
C1155      C1162   1.520       .  S
C1156      H1161   1.083       .  S
C1156      C1157   1.404       .  A
C1157      C1158   1.420       .  A
C1158      C1159   1.517       .  S
C1159      F1163   1.384       .  S
C1159      F1164   1.373       .  S
C1159      F1165   1.382       .  S
C1162      F1167   1.383       .  S
C1162      F1168   1.384       .  S
C1169      H1176   1.083       .  S
C1169      C2402   1.402   1_455  A
C1169      C1174   1.414       .  A
C1170      C2401   1.400       .  A
C1170      C1171   1.416       .  A
C1171      C1172   1.409       .  A
C1171      C1178   1.517       .  S
C1172      H1177   1.083       .  S
C1172      C1173   1.408       .  A
C1173      C2406   1.427       .  A
C1174      C2405   1.429   1_455  A
C1174      C1175   1.520       .  S
C1175      F1179   1.385       .  S
C1175      F1180   1.373       .  S
C1175      F1181   1.381       .  S
C1178      F1182   1.384       .  S
C1178      F1183   1.383       .  S
C1178      F1184   1.385       .  S
C1185      H1192   1.077       .  S
C1185      C1186   1.406       .  A
C1185      C1190   1.409       .  A
C1186      C1187   1.413       .  A
C1187      C1188   1.414       .  A
C1187      C1194   1.512       .  S
C1188      H1193   1.083       .  S
C1188      C1189   1.409       .  A
C1189      C1190   1.419       .  A
C1190      C1191   1.521       .  S
C1191      F1195   1.385       .  S
C1191      F1196   1.384       .  S
C1191      F1197   1.382       .  S
C1194      F1198   1.382       .  S
C1194      F1199   1.379       .  S
C1194      F1200   1.384       .  S
C1201      H1208   1.082       .  S
C1201      C1202   1.413       .  A
C1201      C1206   1.410       .  A
C1202      C1203   1.432       .  A
C1203      C1204   1.404       .  A
C1203      C1210   1.525       .  S
C1204      H1209   1.084       .  S
C1204      C1205   1.398       .  A
C1205      C1206   1.412       .  A
C1206      C1207   1.516   1_554  S
C1207      F1211   1.385       .  S
C1207      F1212   1.383       .  S
C1207      F1213   1.383       .  S
C1210      F1214   1.382       .  S
C1210      F1215   1.374       .  S
C1210      F1216   1.386       .  S
C1217      H1224   1.078       .  S
C1217      C2450   1.403       .  A
C1217      C1222   1.416       .  A
C1218      C2449   1.404       .  A
C1218      C1219   1.431       .  A
C1219      C1220   1.398       .  A
C1219      C1226   1.502       .  S
C1220      H1225   1.086       .  S
C1220      C1221   1.393       .  A
C1221      C1858   1.495       .  S
C1221      C2454   1.425       .  A
C1222      C2453   1.425       .  A
C1222      C1223   1.514       .  S
C1223      F1227   1.384       .  S
C1223      F1228   1.383       .  S
C1223      F1229   1.382       .  S
C1226      F1230   1.383       .  S
C1226      F1231   1.350       .  S
C1226      F1232   1.383       .  S
O1233      C1268   1.236       .  S
O1233     Mg1241   2.146       .  S
C1234      O1247   1.236       .  S
C1234      O1271   1.270       .  A
C1234      H1273   1.081       .  S
Mg1235     O1264   2.149       .  S
Mg1235     O1279   2.333       .  S
Mg1235     O1275   2.244       .  S
Mg1235     O1246   2.299       .  S
O1236      C1873   1.236       .  S
O1236     Mg1278   2.155       .  S
O1236     Mg1877   2.155       .  S
O1237      C1268   1.270   1_554  A
O1237     Mg1261   2.295       .  S
C1238      O1240   1.273       .  A
C1238      O1252   1.273       .  A
C1238      C1821   1.481       .  S
O1239     Mg1857   2.305       .  S
O1240     Mg1272   2.291   1_554  S
Mg1241     O1863   2.157   1_545  S
Mg1241     O1855   2.298   1_545  S
Mg1241     O1255   2.292       .  S
Mg1241     O1243   2.297       .  S
C1242      O1280   1.267       .  A
O1243      C1250   1.277       .  A
H1244      C1257   1.081       .  S
C1245      O1259   1.237       .  S
C1245      O1260   1.272   1_554  A
C1245      H1270   1.081       .  S
O1246      C1269   1.271   1_556  A
O1247     Mg1857   2.145       .  S
O1247     Mg1877   2.163   1_556  S
O1248     Mg1278   2.325       .  S
C1249      O1262   1.277       .  A
C1249      O1254   1.274       .  A
C1249      C1805   1.490       .  S
C1250      O1277   1.271       .  A
C1250      C1757   1.491       .  S
Mg1251     O1874   2.127       .  S
Mg1251     O1259   2.163       .  S
Mg1251     O1252   2.282       .  S
Mg1251     O1869   2.298       .  S
Mg1251     O1280   2.247       .  S
O1253     Mg1867   2.305   1_545  S
O1254     Mg1877   2.302       .  S
O1255      C1274   1.274       .  A
O1256      C1276   1.274       .  A
O1256     Mg1888   2.312   1_545  S
C1257      O1852   1.235   1_545  S
O1258      C1269   1.237       .  S
O1258     Mg1867   2.137   1_545  S
O1258     Mg1888   2.162   1_544  S
O1260     Mg1272   2.304       .  S
Mg1261     O1852   2.159   1_545  S
Mg1261     O1863   2.164   1_544  S
Mg1261     O1870   2.311   1_545  S
Mg1261     O1277   2.277   1_554  S
O1262     Mg1278   2.298       .  S
H1263      C1268   1.081       .  S
O1264      C1883   1.236   1_545  S
O1264     Mg1888   2.154   1_545  S
H1265      C1267   1.081       .  S
H1266      C1269   1.081       .  S
C1267      O1880   1.236       .  S
O1271     Mg1278   2.296   1_556  S
Mg1272     O1874   2.159   1_556  S
Mg1272     O1880   2.154       .  S
Mg1272     O1872   2.315       .  S
C1274      C1786   1.488       .  S
O1275      C1276   1.273       .  A
C1276      C1770   1.498       .  S
C1281      C1287   1.539   1_455  S
C1281      C1285   1.544       .  S
C1283      C1290   1.545   1_455  S
C1283      H1284   1.096       .  S
C1285      C1789   1.518   1_455  S
C1286      C1722   1.499       .  S
C1286      C1289   1.383       .  D
C1287      C1706   1.500       .  S
C1287      C1290   1.386       .  D
C1288      C1738   1.497       .  S
C1289      C1674   1.509       .  S
C1290      C1693   1.506       .  S
O1291      C1326   1.235       .  S
O1291     Mg1299   2.145       .  S
C1292      O1305   1.235       .  S
C1292      O1329   1.269       .  A
C1292      H1331   1.081       .  S
Mg1293     O1322   2.121       .  S
Mg1293     O1337   2.278       .  S
Mg1293     O1333   2.248       .  S
Mg1293     O1304   2.299   1_554  S
O1294      C1315   1.237       .  S
O1294     Mg1336   2.159       .  S
O1294     Mg1319   2.155       .  S
O1295      C1326   1.270   1_556  A
O1295     Mg1319   2.300       .  S
C1296      O1298   1.274       .  A
C1296      O1310   1.270       .  A
C1296      C1610   1.483       .  S
O1297     Mg1299   2.307       .  S
O1298     Mg1330   2.262   1_556  S
Mg1299     O1305   2.137       .  S
Mg1299     O1313   2.263       .  S
Mg1299     O1301   2.287       .  S
C1300      O1338   1.269       .  A
C1300      C1741   1.493       .  S
O1301      C1308   1.274       .  A
H1302      C1315   1.081       .  S
C1303      O1317   1.239       .  S
C1303      O1318   1.273   1_556  A
C1303      H1328   1.081       .  S
O1304      C1327   1.269       .  A
O1305     Mg1319   2.162   1_554  S
O1306     Mg1336   2.308       .  S
C1307      O1320   1.274       .  A
C1307      O1312   1.275       .  A
C1307      C1597   1.477       .  S
C1308      O1335   1.274       .  A
C1308      C1629   1.485       .  S
Mg1309     O1316   2.128       .  S
Mg1309     O1317   2.157       .  S
Mg1309     O1310   2.272       .  S
Mg1309     O1311   2.297       .  S
Mg1309     O1338   2.269       .  S
O1312     Mg1319   2.309       .  S
O1314      C1334   1.280       .  A
O1314     Mg1330   2.366       .  S
O1316      C1327   1.235       .  S
O1316     Mg1330   2.144   1_556  S
O1318     Mg1330   2.309       .  S
Mg1319     O1335   2.290   1_556  S
O1320     Mg1336   2.282       .  S
H1321      C1326   1.081       .  S
O1322      C1325   1.237       .  S
O1322     Mg1330   2.142       .  S
H1323      C1325   1.081       .  S
H1324      C1327   1.081       .  S
O1329     Mg1336   2.293   1_554  S
C1332      O1337   1.269       .  A
C1332      C1658   1.486       .  S
O1333      C1334   1.268       .  A
C1334      C1642   1.496       .  S
C1339      C1345   1.555   1_455  S
C1339      C1343   1.559       .  S
C1341      C1348   1.554   1_455  S
C1341      H1342   1.102       .  S
C1343      C1834   1.511       .  S
C1344      C1578   1.494       .  S
C1344      C1347   1.375       .  D
C1345      C1565   1.520       .  S
C1345      C1348   1.388       .  D
C1346      C1661   1.527       .  S
C1347      C1533   1.504       .  S
C1348      C1546   1.517       .  S
O1349      C1384   1.236       .  S
O1349     Mg1351   2.127       .  S
O1349     Mg1357   2.149       .  S
C1350      O1363   1.235       .  S
C1350      O1387   1.268       .  A
C1350      H1389   1.081       .  S
Mg1351     O1380   2.158       .  S
Mg1351     O1395   2.274       .  S
Mg1351     O1391   2.211       .  S
Mg1351     O1362   2.291       .  S
O1352      C1989   1.237       .  S
O1352     Mg1394   2.157       .  S
O1352     Mg1993   2.141       .  S
O1353      C1384   1.269       .  A
O1353     Mg1377   2.293       .  S
C1354      O1356   1.275       .  A
C1354      O1368   1.274       .  A
C1354      C1581   1.486       .  S
O1355      C1383   1.270       .  A
O1355     Mg1973   2.300       .  S
O1356     Mg1388   2.275       .  S
Mg1357     O1979   2.122   1_545  S
Mg1357     O1971   2.296   1_545  S
Mg1357     O1371   2.262       .  S
Mg1357     O1359   2.280       .  S
C1358      O1396   1.272       .  A
C1358      O1364   1.274       .  A
C1358      C1498   1.475       .  S
O1359      C1366   1.271       .  A
H1360      C1373   1.081       .  S
C1361      O1375   1.234       .  S
C1361      O1376   1.269       .  A
C1361      H1386   1.081       .  S
O1362      C1385   1.268       .  A
O1363     Mg1973   2.122       .  S
O1363     Mg1993   2.160       .  S
O1364     Mg1394   2.307       .  S
C1365      O1378   1.272       .  A
C1365      O1370   1.273       .  A
C1365      C1562   1.468       .  S
C1366      O1393   1.272       .  A
C1366      C1709   1.474       .  S
Mg1367     O1990   2.141       .  S
Mg1367     O1375   2.144       .  S
Mg1367     O1368   2.299       .  S
Mg1367     O1985   2.297       .  S
Mg1367     O1396   2.255       .  S
O1369      C1373   1.271       .  A
O1369     Mg1983   2.298   1_545  S
O1370     Mg1993   2.290       .  S
O1371      C1390   1.270       .  A
O1372      C1392   1.279       .  A
O1372     Mg2004   2.329   1_545  S
C1373      O1968   1.237       .  S
O1374      C1385   1.234       .  S
O1374     Mg1983   2.140   1_545  S
O1374     Mg2004   2.166   1_545  S
O1375     Mg1394   2.149       .  S
O1376     Mg1388   2.300       .  S
Mg1377     O1968   2.139       .  S
Mg1377     O1979   2.153   1_545  S
Mg1377     O1986   2.281   1_545  S
Mg1377     O1393   2.268       .  S
O1378     Mg1394   2.265       .  S
H1379      C1384   1.081       .  S
O1380      C1999   1.236   1_545  S
O1380     Mg2004   2.135   1_545  S
H1381      C1383   1.081       .  S
H1382      C1385   1.081       .  S
C1383      O1996   1.236       .  S
O1387     Mg1394   2.287       .  S
Mg1388     O1990   2.165       .  S
Mg1388     O1996   2.146       .  S
Mg1388     O1988   2.330       .  S
C1390      O1395   1.269       .  A
C1390      C1514   1.476       .  S
O1391      C1392   1.263       .  A
C1392      C1725   1.488       .  S
C1397      C1403   1.571       .  S
C1397      C1402   1.557       .  S
C1397      C1401   1.543       .  S
C1397      H1398   1.107       .  S
C1399      C1405   1.537       .  S
C1399      C1404   1.554       .  S
C1399      C1406   1.543       .  S
C1399      H1400   1.105       .  S
C1401      C1482   1.509       .  S
C1401      C1404   1.379       .  D
C1402      C1645   1.515       .  S
C1402      C1405   1.383       .  D
C1403      C1626   1.533       .  S
C1403      C1406   1.393       .  D
C1404      C1501   1.507       .  S
C1405      C1802   1.505       .  S
C1406      C1818   1.511       .  S
O1407      C1442   1.236       .  S
O1407     Mg1409   2.140       .  S
O1407     Mg1415   2.147       .  S
C1408      O1421   1.236       .  S
C1408      O1445   1.270       .  A
C1408      H1447   1.081       .  S
Mg1409     O1438   2.149       .  S
Mg1409     O1453   2.330       .  S
Mg1409     O1449   2.244       .  S
Mg1409     O1420   2.298       .  S
O1410      C1431   1.236       .  S
O1410     Mg1452   2.137       .  S
O1410     Mg1435   2.129       .  S
O1411      C1442   1.270       .  A
O1411     Mg1435   2.299       .  S
C1412      O1414   1.275       .  A
C1412      O1426   1.270       .  A
C1412      C1690   1.477       .  S
O1413      C1441   1.272       .  A
O1413     Mg1415   2.307       .  S
O1414     Mg1446   2.278       .  S
Mg1415     O1421   2.144       .  S
Mg1415     O1429   2.291       .  S
Mg1415     O1417   2.309       .  S
C1416      O1454   1.274       .  A
C1416      O1422   1.266       .  A
C1416      C1469   1.498       .  S
O1417      C1424   1.279       .  A
H1418      C1431   1.081       .  S
C1419      O1433   1.235       .  S
C1419      O1434   1.269       .  A
C1419      H1444   1.081       .  S
O1420      C1443   1.270       .  A
O1421     Mg1435   2.160       .  S
O1422     Mg1452   2.267       .  S
C1423      O1436   1.269       .  A
C1423      O1428   1.276       .  A
C1423      C1677   1.476       .  S
C1424      O1451   1.269       .  A
C1424      C1530   1.488       .  S
Mg1425     O1432   2.150       .  S
Mg1425     O1433   2.151       .  S
Mg1425     O1426   2.270       .  S
Mg1425     O1427   2.297       .  S
Mg1425     O1454   2.292       .  S
O1427      C1431   1.270       .  A
O1428     Mg1435   2.329       .  S
O1429      C1448   1.273       .  A
O1430      C1450   1.276       .  A
O1430     Mg1446   2.340       .  S
O1432      C1443   1.235       .  S
O1432     Mg1446   2.169       .  S
O1433     Mg1452   2.132       .  S
O1434     Mg1446   2.298       .  S
Mg1435     O1451   2.249       .  S
O1436     Mg1452   2.248       .  S
H1437      C1442   1.081       .  S
O1438      C1441   1.238       .  S
O1438     Mg1446   2.162       .  S
H1439      C1441   1.081       .  S
H1440      C1443   1.081       .  S
O1445     Mg1452   2.292       .  S
C1448      O1453   1.279       .  A
C1448      C1485   1.507       .  S
O1449      C1450   1.274       .  A
C1450      C1549   1.506       .  S
C1455      C1461   1.543       .  S
C1455      C1460   1.535       .  S
C1455      C1459   1.551       .  S
C1455      H1456   1.094       .  S
C1457      C1463   1.540       .  S
C1457      C1462   1.538       .  S
C1457      C1464   1.550       .  S
C1457      H1458   1.100       .  S
C1459      C1466   1.497       .  S
C1459      C1462   1.386       .  D
C1460      C1613   1.490       .  S
C1460      C1463   1.374       .  D
C1461      C1594   1.527       .  S
C1461      C1464   1.388       .  D
C1462      C1517   1.520       .  S
C1463      C1754   1.505       .  S
C1464      C1773   1.491       .  S
C1465      H1472   1.082       .  S
C1465      C1466   1.399       .  A
C1465      C1470   1.400       .  A
C1466      C1467   1.420       .  A
C1467      C1468   1.412       .  A
C1467      C1474   1.519       .  S
C1468      H1473   1.082       .  S
C1468      C1469   1.409       .  A
C1469      C1470   1.430       .  A
C1470      C1471   1.525       .  S
C1471      F1475   1.385       .  S
C1471      F1476   1.384       .  S
C1471      F1477   1.383       .  S
C1474      F1478   1.379       .  S
C1474      F1479   1.379       .  S
C1474      F1480   1.385       .  S
C1481      H1488   1.083       .  S
C1481      C1482   1.404       .  A
C1481      C1486   1.414       .  A
C1482      C1483   1.420       .  A
C1483      C1484   1.408       .  A
C1483      C1490   1.515       .  S
C1484      H1489   1.084       .  S
C1484      C1485   1.409       .  A
C1485      C1486   1.427       .  A
C1486      C1487   1.518       .  S
C1487      F1491   1.385       .  S
C1487      F1492   1.383       .  S
C1487      F1493   1.383       .  S
C1490      F1494   1.383       .  S
C1490      F1495   1.375       .  S
C1490      F1496   1.383       .  S
C1497      H1504   1.086       .  S
C1497      C1498   1.394       .  A
C1497      C1502   1.400       .  A
C1498      C1499   1.411       .  A
C1499      C1500   1.412       .  A
C1499      C1506   1.517       .  S
C1500      H1505   1.073       .  S
C1500      C1501   1.411       .  A
C1501      C1502   1.431       .  A
C1502      C1503   1.517       .  S
C1503      F1507   1.383       .  S
C1503      F1508   1.367       .  S
C1503      F1509   1.384       .  S
C1506      F1510   1.383       .  S
C1506      F1511   1.384       .  S
C1506      F1512   1.384       .  S
C1513      H1520   1.083       .  S
C1513      C1514   1.399       .  A
C1513      C1518   1.411       .  A
C1514      C1515   1.409       .  A
C1515      C1516   1.399       .  A
C1515      C1522   1.518       .  S
C1516      H1521   1.076       .  S
C1516      C1517   1.409       .  A
C1517      C1518   1.432       .  A
C1518      C1519   1.516       .  S
C1519      F1523   1.385       .  S
C1519      F1524   1.369       .  S
C1519      F1525   1.377       .  S
C1522      F1526   1.385       .  S
C1522      F1527   1.380       .  S
C1522      F1528   1.384       .  S
C1529      H1536   1.085       .  S
C1529      C1530   1.399       .  A
C1529      C1534   1.399       .  A
C1530      C1531   1.422       .  A
C1531      C1532   1.410       .  A
C1531      C1538   1.520       .  S
C1532      H1537   1.078       .  S
C1532      C1533   1.404       .  A
C1533      C1534   1.429       .  A
C1534      C1535   1.518       .  S
C1535      F1539   1.385       .  S
C1535      F1540   1.381       .  S
C1535      F1541   1.374       .  S
C1538      F1542   1.383       .  S
C1538      F1543   1.384       .  S
C1538      F1544   1.384       .  S
C1545      H1552   1.078       .  S
C1545      C1546   1.408       .  A
C1545      C1550   1.421       .  A
C1546      C1547   1.419       .  A
C1547      C1548   1.395       .  A
C1547      C1554   1.506       .  S
C1548      H1553   1.083       .  S
C1548      C1549   1.403       .  A
C1549      C1550   1.429       .  A
C1550      C1551   1.517       .  S
C1551      F1555   1.384       .  S
C1551      F1556   1.383       .  S
C1551      F1557   1.383       .  S
C1554      F1558   1.384       .  S
C1554      F1559   1.373       .  S
C1554      F1560   1.381       .  S
C1561      H1568   1.085       .  S
C1561      C1562   1.395       .  A
C1561      C1566   1.406       .  A
C1562      C1563   1.407       .  A
C1563      C1564   1.404       .  A
C1563      C1570   1.520       .  S
C1564      H1569   1.075       .  S
C1564      C1565   1.415       .  A
C1565      C1566   1.430       .  A
C1566      C1567   1.516       .  S
C1567      F1571   1.383       .  S
C1567      F1573   1.381       .  S
C1570      F1574   1.383       .  S
C1570      F1575   1.383       .  S
C1570      F1576   1.384       .  S
C1577      H1584   1.083       .  S
C1577      C1578   1.401       .  A
C1577      C1582   1.407       .  A
C1578      C1579   1.416       .  A
C1579      C1580   1.407       .  A
C1579      C1586   1.513       .  S
C1580      H1585   1.083       .  S
C1580      C1581   1.404       .  A
C1581      C1582   1.423       .  A
C1582      C1583   1.520       .  S
C1583      F1587   1.385       .  S
C1583      F1588   1.383       .  S
C1583      F1589   1.383       .  S
C1586      F1590   1.377       .  S
C1586      F1592   1.385       .  S
C1593      H1600   1.081       .  S
C1593      C1594   1.415       .  A
C1593      C1598   1.410       .  A
C1594      C1595   1.436       .  A
C1595      C1596   1.411       .  A
C1595      C1602   1.519       .  S
C1596      H1601   1.083       .  S
C1596      C1597   1.395       .  A
C1597      C1598   1.406       .  A
C1598      C1599   1.516       .  S
C1599      F1603   1.384       .  S
C1599      F1604   1.383       .  S
C1599      F1605   1.384   1_556  S
C1602      F1606   1.385       .  S
C1602      F1607   1.369       .  S
C1602      F1608   1.381       .  S
C1609      H1616   1.083       .  S
C1609      C1610   1.404       .  A
C1609      C1614   1.405       .  A
C1610      C1611   1.421       .  A
C1611      C1612   1.398       .  A
C1611      C1618   1.520       .  S
C1612      H1617   1.079       .  S
C1612      C1613   1.400       .  A
C1613      C1614   1.418       .  A
C1614      C1615   1.516       .  S
C1615      F1619   1.385       .  S
C1615      F1620   1.382       .  S
C1615      F1621   1.377       .  S
C1618      F1622   1.384       .  S
C1618      F1623   1.381       .  S
C1618      F1624   1.384       .  S
C1625      H1632   1.072       .  S
C1625      C1626   1.414       .  A
C1625      C1630   1.413       .  A
C1626      C1627   1.436       .  A
C1627      C1628   1.404       .  A
C1627      C1634   1.512       .  S
C1628      H1633   1.086       .  S
C1628      C1629   1.394       .  A
C1629      C1630   1.412       .  A
C1630      C1631   1.519       .  S
C1631      F1635   1.383       .  S
C1631      F1636   1.382       .  S
C1631      F1637   1.384       .  S
C1634      F1638   1.380       .  S
C1634      F1639   1.362       .  S
C1634      F1640   1.385       .  S
C1641      H1648   1.084       .  S
C1641      C1642   1.407       .  A
C1641      C1646   1.419       .  A
C1642      C1643   1.415       .  A
C1643      C1644   1.398       .  A
C1643      C1650   1.519       .  S
C1644      H1649   1.073       .  S
C1644      C1645   1.400       .  A
C1645      C1646   1.428       .  A
C1646      C1647   1.510       .  S
C1647      F1651   1.384       .  S
C1647      F1652   1.379       .  S
C1647      F1653   1.380       .  S
C1650      F1654   1.375       .  S
C1650      F1655   1.378       .  S
C1650      F1656   1.376       .  S
C1657      H1664   1.084       .  S
C1657      C1662   1.409       .  A
C1658      C1659   1.419       .  A
C1659      C1660   1.404       .  A
C1659      C1666   1.515       .  S
C1660      H1665   1.076       .  S
C1661      C1662   1.437       .  A
C1662      C1663   1.511       .  S
C1663      F1667   1.386       .  S
C1663      F1668   1.382       .  S
C1663      F1669   1.361       .  S
C1666      F1670   1.383       .  S
C1666      F1671   1.384       .  S
C1666      F1672   1.384       .  S
C1673      H1680   1.081       .  S
C1673      C1674   1.411       .  A
C1673      C1678   1.408       .  A
C1674      C1675   1.426       .  A
C1675      C1676   1.408       .  A
C1675      C1682   1.515       .  S
C1676      H1681   1.083       .  S
C1676      C1677   1.398       .  A
C1677      C1678   1.409       .  A
C1678      C1679   1.515       .  S
C1679      F1683   1.383       .  S
C1679      F1684   1.383       .  S
C1679      F1685   1.384       .  S
C1682      F1686   1.385       .  S
C1682      F1688   1.380       .  S
C1689      H1696   1.083       .  S
C1689      C1690   1.400       .  A
C1689      C1694   1.409       .  A
C1690      C1691   1.415       .  A
C1691      C1692   1.401       .  A
C1691      C1698   1.520       .  S
C1692      H1697   1.082       .  S
C1692      C1693   1.405       .  A
C1693      C1694   1.429       .  A
C1694      C1695   1.520       .  S
C1695      F1699   1.385       .  S
C1695      F1701   1.380       .  S
C1698      F1702   1.384       .  S
C1698      F1703   1.381       .  S
C1698      F1704   1.384       .  S
C1705      H1712   1.082       .  S
C1705      C1706   1.406       .  A
C1705      C1710   1.401       .  A
C1706      C1707   1.430       .  A
C1707      C1708   1.407       .  A
C1707      C1714   1.518       .  S
C1708      H1713   1.085       .  S
C1708      C1709   1.398       .  A
C1709      C1710   1.414       .  A
C1710      C1711   1.521       .  S
C1711      F1715   1.385       .  S
C1711      F1716   1.384       .  S
C1711      F1717   1.381       .  S
C1714      F1718   1.384       .  S
C1714      F1719   1.374       .  S
C1714      F1720   1.383       .  S
C1721      H1728   1.083       .  S
C1721      C1722   1.401       .  A
C1721      C1726   1.403       .  A
C1722      C1723   1.424       .  A
C1723      C1724   1.407       .  A
C1723      C1730   1.515       .  S
C1724      H1729   1.082       .  S
C1724      C1725   1.401       .  A
C1725      C1726   1.425       .  A
C1726      C1727   1.523       .  S
C1727      F1731   1.385       .  S
C1727      F1732   1.382       .  S
C1727      F1733   1.384       .  S
C1730      F1734   1.385       .  S
C1730      F1735   1.370       .  S
C1730      F1736   1.379       .  S
C1737      H1744   1.083       .  S
C1737      C1742   1.414       .  A
C1738      C1739   1.422       .  A
C1739      C1740   1.398       .  A
C1739      C1746   1.517       .  S
C1740      H1745   1.085       .  S
C1741      C1742   1.422       .  A
C1742      C1743   1.518       .  S
C1743      F1747   1.385       .  S
C1743      F1748   1.384       .  S
C1743      F1749   1.382       .  S
C1746      F1750   1.382       .  S
C1746      F1751   1.374       .  S
C1746      F1752   1.383       .  S
C1753      H1760   1.082       .  S
C1753      C1754   1.407       .  A
C1753      C1758   1.412       .  A
C1754      C1755   1.423       .  A
C1755      C1756   1.402       .  A
C1755      C1762   1.513       .  S
C1756      H1761   1.083       .  S
C1756      C1757   1.401       .  A
C1757      C1758   1.420       .  A
C1758      C1759   1.517   1_556  S
C1759      F1763   1.385       .  S
C1759      F1764   1.384       .  S
C1759      F1765   1.382       .  S
C1762      F1766   1.376       .  S
C1762      F1767   1.378       .  S
C1762      F1768   1.385       .  S
C1769      H1776   1.084       .  S
C1769      C1770   1.406       .  A
C1769      C1774   1.396       .  A
C1770      C1771   1.427       .  A
C1771      C1772   1.412       .  A
C1771      C1778   1.521       .  S
C1772      H1777   1.083       .  S
C1772      C1773   1.405       .  A
C1773      C1774   1.420       .  A
C1774      C1775   1.519       .  S
C1775      F1779   1.382       .  S
C1775      F1780   1.375       .  S
C1775      F1781   1.382       .  S
C1778      F2398   1.384       .  S
C1778      F1783   1.383       .  S
C1778      F1784   1.385       .  S
F1782      C2394   1.383       .  S
C1785      H1792   1.083       .  S
C1785      C1790   1.414       .  A
C1786      C1787   1.415       .  A
C1787      C1788   1.409       .  A
C1787      C1794   1.517       .  S
C1788      H1793   1.082       .  S
C1788      C1789   1.409       .  A
C1790      C1791   1.517       .  S
C1791      F1795   1.384       .  S
C1791      F1796   1.373       .  S
C1791      F1797   1.381       .  S
C1794      F1798   1.384       .  S
C1794      F1799   1.383       .  S
C1794      F1800   1.384       .  S
C1801      H1808   1.072       .  S
C1801      C1802   1.404       .  A
C1801      C1806   1.406       .  A
C1802      C1803   1.416       .  A
C1803      C1804   1.414       .  A
C1803      C1810   1.513       .  S
C1804      H1809   1.083       .  S
C1804      C1805   1.409       .  A
C1805      C1806   1.416       .  A
C1806      C1807   1.520       .  S
C1807      F1811   1.385       .  S
C1807      F1812   1.383       .  S
C1807      F1813   1.381       .  S
C1810      F1814   1.382       .  S
C1810      F1815   1.377       .  S
C1810      F1816   1.385   1_554  S
C1817      H1824   1.082       .  S
C1817      C1818   1.413       .  A
C1817      C1822   1.411       .  A
C1818      C1819   1.432       .  A
C1819      C1820   1.406       .  A
C1819      C1826   1.523       .  S
C1820      H1825   1.084       .  S
C1820      C1821   1.399       .  A
C1821      C1822   1.411       .  A
C1822      C1823   1.516       .  S
C1823      F1827   1.384   1_554  S
C1823      F1828   1.383   1_554  S
C1823      F1829   1.384       .  S
C1826      F1830   1.382       .  S
C1826      F1831   1.372       .  S
C1826      F1832   1.386       .  S
C1833      H1840   1.078       .  S
C1833      C1838   1.412       .  A
C1834      C1835   1.429   1_455  A
C1835      C1836   1.399       .  A
C1835      C1842   1.502       .  S
C1836      H1841   1.086       .  S
C1836      C1837   1.393   1_655  A
C1838      C1839   1.516       .  S
C1839      F1843   1.385       .  S
C1839      F1844   1.383       .  S
C1839      F1845   1.382       .  S
C1842      F1846   1.382       .  S
C1842      F1847   1.352       .  S
C1842      F1848   1.383       .  S
O1849      C1884   1.237       .  S
O1849     Mg1857   2.144       .  S
C1850      O1863   1.236       .  S
C1850      O1887   1.271       .  A
C1850      H1889   1.081       .  S
Mg1851     O1880   2.154       .  S
Mg1851     O1895   2.323       .  S
Mg1851     O1891   2.242       .  S
Mg1851     O1862   2.291       .  S
O1852     Mg1894   2.153       .  S
O1853      C1884   1.270   1_554  A
O1853     Mg1877   2.297       .  S
C1854      O1856   1.273       .  A
C1854      O1868   1.274       .  A
C1854      C2437   1.486       .  S
O1856     Mg1888   2.294   1_554  S
Mg1857     O1871   2.296       .  S
Mg1857     O1859   2.304       .  S
C1858      O1896   1.269       .  A
O1859      C1866   1.278       .  A
H1860      C1873   1.081       .  S
C1861      O1875   1.236       .  S
C1861      O1876   1.271   1_554  A
C1861      H1886   1.081       .  S
O1862      C1885   1.269   1_556  A
O1864     Mg1894   2.339       .  S
C1865      O1878   1.277       .  A
C1865      O1870   1.275       .  A
C1865      C2421   1.494       .  S
C1866      O1893   1.270       .  A
C1866      C2373   1.494       .  S
Mg1867     O1875   2.160       .  S
Mg1867     O1868   2.293       .  S
Mg1867     O1896   2.261       .  S
O1871      C1890   1.275       .  A
O1872      C1892   1.273       .  A
O1874      C1885   1.236       .  S
O1876     Mg1888   2.299       .  S
Mg1877     O1893   2.273   1_554  S
O1878     Mg1894   2.304       .  S
H1879      C1884   1.081       .  S
H1881      C1883   1.081       .  S
H1882      C1885   1.081       .  S
O1887     Mg1894   2.304   1_556  S
C1890      C2402   1.491       .  S
O1891      C1892   1.274       .  A
C1892      C2386   1.499       .  S
C1897      C1903   1.540   1_455  S
C1897      C1901   1.543       .  S
C1899      C1906   1.542   1_455  S
C1899      H1900   1.096       .  S
C1901      C2405   1.516   1_455  S
C1902      C2338   1.501       .  S
C1902      C1905   1.379       .  D
C1903      C2322   1.498       .  S
C1903      C1906   1.383       .  D
C1904      C2354   1.505       .  S
C1905      C2290   1.504       .  S
C1906      C2309   1.502       .  S
O1907      C1942   1.235       .  S
O1907     Mg1915   2.134       .  S
C1908      O1921   1.237       .  S
C1908      O1945   1.271       .  A
C1908      H1947   1.081       .  S
Mg1909     O1938   2.123       .  S
Mg1909     O1953   2.285       .  S
Mg1909     O1949   2.254       .  S
Mg1909     O1920   2.299       .  S
O1910      C1931   1.236       .  S
O1910     Mg1952   2.155       .  S
O1910     Mg1935   2.151       .  S
O1911      C1942   1.270       .  A
O1911     Mg1935   2.300   1_554  S
C1912      O1914   1.273       .  A
C1912      O1926   1.271       .  A
C1912      C2226   1.488       .  S
O1913     Mg1915   2.314       .  S
O1914     Mg1946   2.267   1_556  S
Mg1915     O1921   2.139       .  S
Mg1915     O1929   2.255       .  S
Mg1915     O1917   2.303       .  S
C1916      O1954   1.269       .  A
C1916      C2357   1.495       .  S
O1917      C1924   1.275       .  A
H1918      C1931   1.081       .  S
C1919      O1933   1.238       .  S
C1919      O1934   1.273   1_556  A
C1919      H1944   1.081       .  S
O1920      C1943   1.269   1_554  A
O1921     Mg1935   2.160   1_554  S
O1922     Mg1952   2.329       .  S
C1923      O1936   1.274       .  A
C1923      O1928   1.274       .  A
C1923      C2213   1.472       .  S
C1924      O1951   1.272       .  A
C1924      C2245   1.487       .  S
Mg1925     O1932   2.131       .  S
Mg1925     O1933   2.161       .  S
Mg1925     O1926   2.281       .  S
Mg1925     O1927   2.296       .  S
Mg1925     O1954   2.268       .  S
O1928     Mg1935   2.304       .  S
O1930      C1950   1.279       .  A
O1930     Mg1946   2.362       .  S
O1932      C1943   1.235       .  S
O1932     Mg1946   2.148   1_556  S
O1934     Mg1946   2.308       .  S
Mg1935     O1951   2.278   1_556  S
O1936     Mg1952   2.274       .  S
H1937      C1942   1.081       .  S
O1938      C1941   1.238       .  S
O1938     Mg1946   2.152       .  S
H1939      C1941   1.081       .  S
H1940      C1943   1.081       .  S
O1945     Mg1952   2.299   1_554  S
C1948      O1953   1.270       .  A
C1948      C2274   1.484       .  S
O1949      C1950   1.270       .  A
C1950      C2258   1.495       .  S
C1955      C1961   1.553   1_455  S
C1955      C1959   1.562       .  S
C1957      C1964   1.551   1_455  S
C1957      H1958   1.099       .  S
C1959      C2450   1.517       .  S
C1960      C2194   1.495       .  S
C1960      C1963   1.379       .  D
C1961      C2181   1.513       .  S
C1961      C1964   1.387       .  D
C1962      C2277   1.516       .  S
C1963      C2149   1.512       .  S
C1964      C2162   1.520       .  S
O1965      C2000   1.236       .  S
O1965     Mg1967   2.124       .  S
O1965     Mg1973   2.148       .  S
C1966      O1979   1.235       .  S
C1966      O2003   1.268       .  A
C1966      H2005   1.081       .  S
Mg1967     O1996   2.158       .  S
Mg1967     O2011   2.284       .  S
Mg1967     O2007   2.208       .  S
Mg1967     O1978   2.291       .  S
O1968     Mg2010   2.154   1_545  S
O1969      C2000   1.269       .  A
O1969     Mg1993   2.293       .  S
C1970      O1972   1.274       .  A
C1970      O1984   1.274       .  A
C1970      C2197   1.480       .  S
O1971      C1999   1.270       .  A
O1972     Mg2004   2.264       .  S
Mg1973     O1987   2.259       .  S
Mg1973     O1975   2.280       .  S
C1974      O2012   1.272       .  A
C1974      O1980   1.272       .  A
C1974      C2114   1.475       .  S
O1975      C1982   1.272       .  A
H1976      C1989   1.081       .  S
C1977      O1991   1.234       .  S
C1977      O1992   1.269       .  A
C1977      H2002   1.081       .  S
O1978      C2001   1.268       .  A
O1980     Mg2010   2.301       .  S
C1981      O1994   1.271       .  A
C1981      O1986   1.271       .  A
C1981      C2178   1.461       .  S
C1982      O2009   1.272       .  A
C1982      C2325   1.471       .  S
Mg1983     O1991   2.142       .  S
Mg1983     O1984   2.296       .  S
Mg1983     O2012   2.258       .  S
O1985      C1989   1.271       .  A
O1987      C2006   1.269       .  A
O1988      C2008   1.279       .  A
O1990      C2001   1.235       .  S
O1991     Mg2010   2.143       .  S
O1992     Mg2004   2.301       .  S
Mg1993     O2009   2.265       .  S
O1994     Mg2010   2.253       .  S
H1995      C2000   1.081       .  S
H1997      C1999   1.081       .  S
H1998      C2001   1.081       .  S
O2003     Mg2010   2.289       .  S
C2006      O2011   1.271       .  A
C2006      C2130   1.477       .  S
O2007      C2008   1.262       .  A
C2008      C2341   1.491       .  S
C2013      C2019   1.572       .  S
C2013      C2018   1.557       .  S
C2013      C2017   1.538       .  S
C2013      H2014   1.106       .  S
C2015      C2021   1.541       .  S
C2015      C2020   1.553       .  S
C2015      C2022   1.546       .  S
C2015      H2016   1.107       .  S
C2017      C2098   1.504       .  S
C2017      C2020   1.378       .  D
C2018      C2261   1.521       .  S
C2018      C2021   1.384       .  D
C2019      C2242   1.537       .  S
C2019      C2022   1.395       .  D
C2020      C2117   1.503       .  S
C2021      C2418   1.508       .  S
C2022      C2434   1.515       .  S
O2023      C2058   1.236       .  S
O2023     Mg2025   2.148       .  S
O2023     Mg2031   2.144       .  S
C2024      O2037   1.236       .  S
C2024      O2061   1.270       .  A
C2024      H2063   1.081       .  S
Mg2025     O2054   2.150       .  S
Mg2025     O2069   2.316       .  S
Mg2025     O2065   2.248       .  S
Mg2025     O2036   2.293       .  S
O2026      C2047   1.236       .  S
O2026     Mg2068   2.149       .  S
O2026     Mg2051   2.132       .  S
O2027      C2058   1.270       .  A
O2027     Mg2051   2.303       .  S
C2028      O2030   1.278       .  A
C2028      O2042   1.271       .  A
C2028      C2306   1.485       .  S
O2029      C2057   1.275       .  A
O2029     Mg2031   2.318       .  S
O2030     Mg2062   2.296       .  S
Mg2031     O2037   2.134       .  S
Mg2031     O2045   2.278       .  S
Mg2031     O2033   2.325       .  S
C2032      O2070   1.274       .  A
C2032      O2038   1.267       .  A
C2032      C2085   1.499       .  S
O2033      C2040   1.281       .  A
H2034      C2047   1.081       .  S
C2035      O2049   1.235       .  S
C2035      O2050   1.268       .  A
C2035      H2060   1.081       .  S
O2036      C2059   1.268       .  A
O2037     Mg2051   2.157       .  S
O2038     Mg2068   2.267       .  S
C2039      O2052   1.269       .  A
C2039      O2044   1.275       .  A
C2039      C2293   1.470       .  S
C2040      O2067   1.270       .  A
C2040      C2146   1.493       .  S
Mg2041     O2048   2.137       .  S
Mg2041     O2049   2.165       .  S
Mg2041     O2042   2.276       .  S
Mg2041     O2043   2.286       .  S
Mg2041     O2070   2.285       .  S
O2043      C2047   1.269       .  A
O2044     Mg2051   2.317       .  S
O2045      C2064   1.272       .  A
O2046      C2066   1.276       .  A
O2046     Mg2062   2.336       .  S
O2048      C2059   1.235       .  S
O2048     Mg2062   2.159       .  S
O2049     Mg2068   2.129       .  S
O2050     Mg2062   2.292       .  S
Mg2051     O2067   2.261       .  S
O2052     Mg2068   2.241       .  S
H2053      C2058   1.081       .  S
O2054      C2057   1.239       .  S
O2054     Mg2062   2.176       .  S
H2055      C2057   1.081       .  S
H2056      C2059   1.081       .  S
O2061     Mg2068   2.292       .  S
C2064      O2069   1.277       .  A
C2064      C2101   1.498       .  S
O2065      C2066   1.274       .  A
C2066      C2165   1.505       .  S
C2071      C2077   1.546       .  S
C2071      C2076   1.539       .  S
C2071      C2075   1.555       .  S
C2071      H2072   1.098       .  S
C2073      C2079   1.540       .  S
C2073      C2078   1.537       .  S
C2073      C2080   1.543       .  S
C2073      H2074   1.100       .  S
C2075      C2082   1.501       .  S
C2075      C2078   1.387       .  D
C2076      C2229   1.498       .  S
C2076      C2079   1.375       .  D
C2077      C2210   1.518       .  S
C2077      C2080   1.384       .  D
C2078      C2133   1.516       .  S
C2079      C2370   1.502       .  S
C2080      C2389   1.493       .  S
C2081      H2088   1.082       .  S
C2081      C2082   1.400       .  A
C2081      C2086   1.404       .  A
C2082      C2083   1.420       .  A
C2083      C2084   1.410       .  A
C2083      C2090   1.516       .  S
C2084      H2089   1.082       .  S
C2084      C2085   1.408       .  A
C2085      C2086   1.428       .  A
C2086      C2087   1.522       .  S
C2087      F2091   1.385       .  S
C2087      F2092   1.381       .  S
C2087      F2093   1.384       .  S
C2090      F2094   1.375       .  S
C2090      F2095   1.381       .  S
C2090      F2096   1.385       .  S
C2097      H2104   1.083       .  S
C2097      C2098   1.407       .  A
C2097      C2102   1.413       .  A
C2098      C2099   1.418       .  A
C2099      C2100   1.405       .  A
C2099      C2106   1.514       .  S
C2100      H2105   1.084       .  S
C2100      C2101   1.407       .  A
C2101      C2102   1.423       .  A
C2102      C2103   1.518       .  S
C2103      F2107   1.385       .  S
C2103      F2108   1.383       .  S
C2103      F2109   1.384       .  S
C2106      F2110   1.383       .  S
C2106      F2111   1.377       .  S
C2106      F2112   1.382       .  S
C2113      H2120   1.086       .  S
C2113      C2114   1.396       .  A
C2113      C2118   1.400       .  A
C2114      C2115   1.412       .  A
C2115      C2116   1.409       .  A
C2115      C2122   1.518       .  S
C2116      H2121   1.074       .  S
C2116      C2117   1.408       .  A
C2117      C2118   1.431       .  A
C2118      C2119   1.518       .  S
C2119      F2123   1.383       .  S
C2119      F2124   1.369       .  S
C2119      F2125   1.385       .  S
C2122      F2126   1.383       .  S
C2122      F2127   1.383       .  S
C2122      F2128   1.385       .  S
C2129      H2136   1.083       .  S
C2129      C2130   1.398       .  A
C2129      C2134   1.410       .  A
C2130      C2131   1.410       .  A
C2131      C2132   1.399       .  A
C2131      C2138   1.516       .  S
C2132      H2137   1.074       .  S
C2132      C2133   1.405       .  A
C2133      C2134   1.432       .  A
C2134      C2135   1.515       .  S
C2135      F2139   1.385       .  S
C2135      F2140   1.368       .  S
C2135      F2141   1.377       .  S
C2138      F2142   1.384       .  S
C2138      F2143   1.382       .  S
C2138      F2144   1.385       .  S
C2145      H2152   1.085       .  S
C2145      C2146   1.399       .  A
C2145      C2150   1.403       .  A
C2146      C2147   1.421       .  A
C2147      C2148   1.412       .  A
C2147      C2154   1.520       .  S
C2148      H2153   1.078       .  S
C2148      C2149   1.408       .  A
C2149      C2150   1.433       .  A
C2150      C2151   1.519       .  S
C2151      F2155   1.386       .  S
C2151      F2156   1.381       .  S
C2151      F2157   1.374       .  S
C2154      F2158   1.383       .  S
C2154      F2159   1.384       .  S
C2154      F2160   1.385       .  S
C2161      H2168   1.076       .  S
C2161      C2162   1.410       .  A
C2161      C2166   1.421       .  A
C2162      C2163   1.421       .  A
C2163      C2164   1.397       .  A
C2163      C2170   1.507       .  S
C2164      H2169   1.083       .  S
C2164      C2165   1.403       .  A
C2165      C2166   1.427       .  A
C2166      C2167   1.518       .  S
C2167      F2171   1.384       .  S
C2167      F2172   1.384       .  S
C2167      F2173   1.383       .  S
C2170      F2174   1.384       .  S
C2170      F2175   1.375       .  S
C2170      F2176   1.379       .  S
C2177      H2184   1.085       .  S
C2177      C2178   1.395       .  A
C2177      C2182   1.403       .  A
C2178      C2179   1.406       .  A
C2179      C2180   1.401       .  A
C2179      C2186   1.520       .  S
C2180      H2185   1.075       .  S
C2180      C2181   1.414       .  A
C2181      C2182   1.427       .  A
C2182      C2183   1.515       .  S
C2183      F2187   1.383       .  S
C2183      F2189   1.381       .  S
C2186      F2190   1.383   1_565  S
C2186      F2191   1.383       .  S
C2186      F2192   1.384       .  S
C2193      H2200   1.083       .  S
C2193      C2194   1.403       .  A
C2193      C2198   1.406       .  A
C2194      C2195   1.416       .  A
C2195      C2196   1.406       .  A
C2195      C2202   1.513       .  S
C2196      H2201   1.083       .  S
C2196      C2197   1.402       .  A
C2197      C2198   1.421       .  A
C2198      C2199   1.521       .  S
C2199      F2203   1.384       .  S
C2199      F2204   1.383       .  S
C2199      F2205   1.384       .  S
C2202      F2206   1.377       .  S
C2202      F2208   1.385       .  S
C2209      H2216   1.081       .  S
C2209      C2210   1.415       .  A
C2209      C2214   1.407       .  A
C2210      C2211   1.430       .  A
C2211      C2212   1.408       .  A
C2211      C2218   1.518       .  S
C2212      H2217   1.083       .  S
C2212      C2213   1.395       .  A
C2213      C2214   1.407       .  A
C2214      C2215   1.516       .  S
C2215      F2219   1.385       .  S
C2215      F2220   1.383       .  S
C2215      F2221   1.383   1_556  S
C2218      F2222   1.385       .  S
C2218      F2223   1.371       .  S
C2218      F2224   1.380       .  S
C2225      H2232   1.083       .  S
C2225      C2226   1.406       .  A
C2225      C2230   1.408       .  A
C2226      C2227   1.420       .  A
C2227      C2228   1.399       .  A
C2227      C2234   1.519       .  S
C2228      H2233   1.077       .  S
C2228      C2229   1.400       .  A
C2229      C2230   1.418       .  A
C2230      C2231   1.515       .  S
C2231      F2235   1.385       .  S
C2231      F2236   1.381       .  S
C2231      F2237   1.378       .  S
C2234      F2238   1.383       .  S
C2234      F2239   1.381       .  S
C2234      F2240   1.384       .  S
C2241      H2248   1.069       .  S
C2241      C2242   1.415       .  A
C2241      C2246   1.412       .  A
C2242      C2243   1.438       .  A
C2243      C2244   1.406       .  A
C2243      C2250   1.513       .  S
C2244      H2249   1.086       .  S
C2244      C2245   1.395       .  A
C2245      C2246   1.411       .  A
C2246      C2247   1.520       .  S
C2247      F2251   1.382       .  S
C2247      F2252   1.383       .  S
C2247      F2253   1.383       .  S
C2250      F2254   1.381       .  S
C2250      F2255   1.362       .  S
C2250      F2256   1.385       .  S
C2257      H2264   1.084       .  S
C2257      C2258   1.405       .  A
C2257      C2262   1.420       .  A
C2258      C2259   1.411       .  A
C2259      C2260   1.399       .  A
C2259      C2266   1.519       .  S
C2260      H2265   1.072       .  S
C2260      C2261   1.404       .  A
C2261      C2262   1.430       .  A
C2262      C2263   1.509       .  S
C2263      F2267   1.384       .  S
C2263      F2268   1.378       .  S
C2263      F2269   1.379       .  S
C2266      F2270   1.376       .  S
C2266      F2271   1.380       .  S
C2266      F2272   1.377       .  S
C2273      H2280   1.083       .  S
C2273      C2278   1.406       .  A
C2274      C2275   1.417       .  A
C2275      C2276   1.403       .  A
C2275      C2282   1.517       .  S
C2276      H2281   1.076       .  S
C2277      C2278   1.435       .  A
C2278      C2279   1.513       .  S
C2279      F2283   1.386       .  S
C2279      F2284   1.376       .  S
C2279      F2285   1.365       .  S
C2282      F2286   1.382       .  S
C2282      F2287   1.384       .  S
C2282      F2288   1.384       .  S
C2289      H2296   1.081       .  S
C2289      C2290   1.412       .  A
C2289      C2294   1.405       .  A
C2290      C2291   1.422       .  A
C2291      C2292   1.405       .  A
C2291      C2298   1.514       .  S
C2292      H2297   1.083       .  S
C2292      C2293   1.398       .  A
C2293      C2294   1.408       .  A
C2294      C2295   1.516       .  S
C2295      F2299   1.383       .  S
C2295      F2300   1.383       .  S
C2295      F2301   1.385       .  S
C2298      F2302   1.370       .  S
C2298      F2304   1.385       .  S
C2305      H2312   1.083       .  S
C2305      C2306   1.404       .  A
C2305      C2310   1.411       .  A
C2306      C2307   1.419       .  A
C2307      C2308   1.402       .  A
C2307      C2314   1.518       .  S
C2308      H2313   1.083       .  S
C2308      C2309   1.401       .  A
C2309      C2310   1.425       .  A
C2310      C2311   1.520       .  S
C2311      F2315   1.385       .  S
C2311      F2317   1.381       .  S
C2314      F2318   1.383       .  S
C2314      F2319   1.383       .  S
C2314      F2320   1.383       .  S
C2321      H2328   1.082       .  S
C2321      C2322   1.405       .  A
C2321      C2326   1.400       .  A
C2322      C2323   1.430       .  A
C2323      C2324   1.406       .  A
C2323      C2330   1.517       .  S
C2324      H2329   1.085       .  S
C2324      C2325   1.398       .  A
C2325      C2326   1.413       .  A
C2326      C2327   1.520       .  S
C2327      F2331   1.385       .  S
C2327      F2332   1.384       .  S
C2327      F2333   1.381       .  S
C2330      F2334   1.384       .  S
C2330      F2335   1.372       .  S
C2330      F2336   1.383       .  S
C2337      H2344   1.083       .  S
C2337      C2338   1.402       .  A
C2337      C2342   1.402       .  A
C2338      C2339   1.422       .  A
C2339      C2340   1.408       .  A
C2339      C2346   1.515       .  S
C2340      H2345   1.082       .  S
C2340      C2341   1.403       .  A
C2341      C2342   1.427       .  A
C2342      C2343   1.524       .  S
C2343      F2347   1.385       .  S
C2343      F2348   1.382       .  S
C2343      F2349   1.384       .  S
C2346      F2350   1.385       .  S
C2346      F2351   1.372       .  S
C2346      F2352   1.380       .  S
C2353      H2360   1.083       .  S
C2353      C2358   1.414       .  A
C2354      C2355   1.422       .  A
C2355      C2356   1.401       .  A
C2355      C2362   1.514       .  S
C2356      H2361   1.085       .  S
C2357      C2358   1.423       .  A
C2358      C2359   1.519       .  S
C2359      F2363   1.385       .  S
C2359      F2364   1.383       .  S
C2359      F2365   1.381       .  S
C2362      F2366   1.381       .  S
C2362      F2367   1.374       .  S
C2362      F2368   1.383       .  S
C2369      H2376   1.082       .  S
C2369      C2370   1.406       .  A
C2369      C2374   1.413       .  A
C2370      C2371   1.421       .  A
C2371      C2372   1.401       .  A
C2371      C2378   1.514       .  S
C2372      H2377   1.082       .  S
C2372      C2373   1.402       .  A
C2373      C2374   1.423       .  A
C2374      C2375   1.518   1_556  S
C2375      F2379   1.385       .  S
C2375      F2380   1.383       .  S
C2375      F2381   1.383       .  S
C2378      F2382   1.374       .  S
C2378      F2383   1.378       .  S
C2378      F2384   1.385       .  S
C2385      H2392   1.084       .  S
C2385      C2386   1.405       .  A
C2385      C2390   1.396       .  A
C2386      C2387   1.427       .  A
C2387      C2388   1.413       .  A
C2387      C2394   1.520       .  S
C2388      H2393   1.083       .  S
C2388      C2389   1.404       .  A
C2389      C2390   1.420       .  A
C2390      C2391   1.517       .  S
C2391      F2395   1.383       .  S
C2391      F2396   1.373       .  S
C2391      F2397   1.383       .  S
C2394      F2399   1.384       .  S
C2394      F2400   1.385       .  S
C2401      H2408   1.083       .  S
C2401      C2406   1.412       .  A
C2402      C2403   1.417       .  A
C2403      C2404   1.409       .  A
C2403      C2410   1.517       .  S
C2404      H2409   1.083       .  S
C2404      C2405   1.408       .  A
C2406      C2407   1.518       .  S
C2407      F2411   1.385       .  S
C2407      F2412   1.373       .  S
C2407      F2413   1.381       .  S
C2410      F2414   1.384       .  S
C2410      F2415   1.383       .  S
C2410      F2416   1.385       .  S
C2417      H2424   1.073       .  S
C2417      C2418   1.406       .  A
C2417      C2422   1.409       .  A
C2418      C2419   1.415       .  A
C2419      C2420   1.414       .  A
C2419      C2426   1.513       .  S
C2420      H2425   1.083       .  S
C2420      C2421   1.409       .  A
C2421      C2422   1.418       .  A
C2422      C2423   1.521       .  S
C2423      F2427   1.384       .  S
C2423      F2428   1.383       .  S
C2423      F2429   1.381       .  S
C2426      F2430   1.382       .  S
C2426      F2431   1.377       .  S
C2426      F2432   1.384   1_554  S
C2433      H2440   1.082       .  S
C2433      C2434   1.412       .  A
C2433      C2438   1.413       .  A
C2434      C2435   1.435       .  A
C2435      C2436   1.406       .  A
C2435      C2442   1.521       .  S
C2436      H2441   1.085       .  S
C2436      C2437   1.397       .  A
C2437      C2438   1.414       .  A
C2438      C2439   1.515       .  S
C2439      F2443   1.384   1_554  S
C2439      F2444   1.382   1_554  S
C2439      F2445   1.383       .  S
C2442      F2446   1.382       .  S
C2442      F2447   1.368       .  S
C2442      F2448   1.386       .  S
C2449      H2456   1.080       .  S
C2449      C2454   1.416       .  A
C2450      C2451   1.430   1_455  A
C2451      C2452   1.402       .  A
C2451      C2458   1.502       .  S
C2452      H2457   1.085       .  S
C2452      C2453   1.396   1_655  A
C2454      C2455   1.516       .  S
C2455      F2459   1.384       .  S
C2455      F2460   1.383       .  S
C2455      F2461   1.382       .  S
C2458      F2462   1.382       .  S
C2458      F2463   1.352       .  S
C2458      F2464   1.383       .  S
