geometry optimzed in LAMMPS
_audit_creation_date              2020-11-30 
_audit_creation_method            'lammps2cif' 
_symmetry_space_group_name_H-M    'P1' 
_symmetry_Int_Tables_number       1 
_symmetry_cell_setting            triclinic 
loop_ 
_symmetry_equiv_pos_as_xyz 
  x,y,z 
_cell_length_a                    35.073956745491735 
_cell_length_b                    35.039647526522366 
_cell_length_c                    29.601673810372876 
_cell_angle_alpha                 90.00164341850122 
_cell_angle_beta                  90.00448790069657 
_cell_angle_gamma                 120.09770084405407 
loop_ 
_atom_site_label 
_atom_site_type_symbol 
_atom_site_fract_x 
_atom_site_fract_y 
_atom_site_fract_z 
_atom_site_charge 
C1          C  0.36069441  0.89614521  0.34448160     0.42850
N2          N  0.40732129  0.94732792  0.30114342     0.01740
C3          C  0.57871172  0.94501239  0.17841612    -0.06140
H4          H  0.61248918  0.95893461  0.32884131     0.07230
C5          C  0.61281772  0.11648427  0.32813019    -0.06490
Co6        Co  0.46629057  0.92005942  0.25240102     0.74180
N7          N  0.55319504  0.95393959  0.30056696    -0.25670
Co8        Co  0.57596460  0.00447848  0.25267281     0.74070
C9          C  0.64530334  0.10487298  0.34445588     0.42950
N10         N  0.49457851  0.07846222  0.30143889     0.01360
N11         N  0.59863769  0.05359405  0.30118934     0.01460
N12         N  0.50784981  0.88974216  0.17804670    -0.46510
H13         H  0.39263817  0.85348363  0.33160143     0.07220
N14         N  0.51131545  0.92240436  0.30144641     0.01750
N15         N  0.59920968  0.05450176  0.20416259     0.01490
C16         C  0.64347807  0.10571724  0.15903323     0.43090
N17         N  0.45270806  0.04691206  0.30052576    -0.25120
C18         C  0.39585947  0.88511381  0.17550554    -0.06040
N19         N  0.37151391  0.93533290  0.32598903    -0.46230
N20         N  0.63485033  0.06737472  0.17853160    -0.46450
C21         C  0.36244272  0.89517136  0.15897485     0.42860
N22         N  0.51234127  0.92294078  0.20349131     0.01730
N23         N  0.45211257  0.04547104  0.20446984    -0.25140
N24         N  0.42045050  0.91784727  0.30102966    -0.25640
N25         N  0.49357189  0.07791550  0.20347714     0.01370
H26         H  0.39157803  0.03747411  0.17665159     0.07260
H27         H  0.60865048  0.14570610  0.17155029     0.07300
N28         N  0.55381429  0.95536100  0.20450166    -0.25690
N29         N  0.58548387  0.08305850  0.30105305    -0.25300
N30         N  0.40673120  0.94637379  0.20411656     0.01740
C31         C  0.54492465  0.89821289  0.34382906     0.43140
C32         C  0.42894526  0.05906322  0.32650902    -0.06550
N33         N  0.58456318  0.08274736  0.20369019    -0.25300
H34         H  0.61330003  0.14746822  0.33152993     0.07280
N35         N  0.50525731  0.88859965  0.32670519    -0.46520
H36         H  0.39337485  0.04184850  0.32875883     0.07270
C37         C  0.45760786  0.09938431  0.16103418     0.42970
C38         C  0.39313442  0.88447070  0.32815538    -0.06050
Co39       Co  0.42997844  0.99639096  0.25262846     0.73820
N40         N  0.50059380  0.11224891  0.32670862    -0.46240
C41         C  0.54824157  0.90142506  0.16101445     0.43240
N42         N  0.37109728  0.93352155  0.17847454    -0.46230
Co43       Co  0.53962603  0.08081381  0.25241271     0.73890
C44         C  0.61004545  0.11574883  0.17555136    -0.06550
C45         C  0.57692041  0.94174795  0.32656457    -0.06120
N46         N  0.42135685  0.91811333  0.20365223    -0.25640
N47         N  0.63448437  0.06565886  0.32600829    -0.46410
H48         H  0.61431473  0.96329895  0.17664961     0.07240
C49         C  0.42718144  0.05578495  0.17840223    -0.06530
Cl50       Cl  0.50297158  0.00043749  0.25264236    -0.49530
C51         C  0.46090290  0.10259610  0.34380400     0.43000
H52         H  0.39723269  0.85514444  0.17150421     0.07210
N53         N  0.49801901  0.11111134  0.17805920    -0.46240
C54         C  0.89881532  0.53814480  0.34397119     0.42850
N55         N  0.94913007  0.54280461  0.29927493     0.01740
C56         C  0.94575894  0.36827288  0.17710517    -0.06140
H57         H  0.96704104  0.35217129  0.32644189     0.07230
C58         C  0.11869657  0.50744245  0.32807127    -0.06490
Co59       Co  0.92276360  0.45642191  0.25174463     0.74180
N60         N  0.95879069  0.40469569  0.29890405    -0.25670
Co61       Co  0.00782487  0.43202383  0.25065991     0.74070
C62         C  0.10727414  0.46314355  0.34397095     0.42950
N63         N  0.07950063  0.58734529  0.30049200     0.01360
N64         N  0.05692904  0.45843662  0.29927232     0.01460
N65         N  0.89182462  0.38554115  0.17782084    -0.46510
H66         H  0.85681918  0.46303562  0.33254844     0.07220
N67         N  0.92652503  0.41385813  0.30061458     0.01750
N68         N  0.05758830  0.45916858  0.20223843     0.01490
C69         C  0.10978728  0.46629575  0.15864207     0.43090
N70         N  0.04722666  0.59649414  0.29879629    -0.25120
C71         C  0.88614798  0.49142593  0.17565327    -0.06040
N72         N  0.93732049  0.56665657  0.32431620    -0.46230
N73         N  0.07086935  0.43650665  0.17703168    -0.46450
C74         C  0.89611356  0.53488129  0.15883311     0.42860
N75         N  0.92559759  0.41379107  0.20275478     0.01730
N76         N  0.04834254  0.59692099  0.20293823    -0.25140
N77         N  0.92029046  0.49997990  0.30024472    -0.25640
N78         N  0.08033446  0.58731330  0.20264642     0.01370
H79         H  0.04259945  0.65078689  0.17458565     0.07260
H80         H  0.14999269  0.54106373  0.17236968     0.07300
N81         N  0.95759938  0.40419555  0.20302606    -0.25690
N82         N  0.08577899  0.50125997  0.30018640    -0.25300
N83         N  0.94838896  0.54198442  0.20227385     0.01740
C84         C  0.90550078  0.35643756  0.34301353     0.43140
C85         C  0.05728049  0.63176548  0.32479880    -0.06550
N86         N  0.08612981  0.50209151  0.20273351    -0.25300
H87         H  0.14927880  0.53823951  0.33245455     0.07280
N88         N  0.89369886  0.38518533  0.32642030    -0.46520
H89         H  0.03897192  0.64903338  0.32627630     0.07270
C90         C  0.10394889  0.64512675  0.16033453     0.42970
C91         C  0.88739664  0.49382846  0.32813559    -0.06050
Co92       Co  0.99817652  0.56914793  0.25062040     0.73820
N93         N  0.11234842  0.61605742  0.32624704    -0.46240
C94         C  0.90193580  0.35591240  0.16050732     0.43240
N95         N  0.93507766  0.56465867  0.17713382    -0.46230
Co96       Co  0.08323490  0.54475369  0.25165541     0.73890
C97         C  0.11975799  0.50974515  0.17548396    -0.06550
C98         C  0.94873995  0.36944587  0.32494969    -0.06120
N99         N  0.91983174  0.49906533  0.20281156    -0.25640
N100        N  0.06874830  0.43461645  0.32435101    -0.46410
H101        H  0.96332162  0.35030298  0.17471393     0.07240
C102        C  0.06015637  0.63281079  0.17697995    -0.06530
Cl103      Cl  0.00299855  0.50058437  0.25109625    -0.49530
C104        C  0.10053383  0.64480247  0.34281033     0.43000
H105        H  0.85588388  0.46012397  0.17261357     0.07210
N106        N  0.11407375  0.61551598  0.17765956    -0.46240
C107        C  0.46803828  0.36040836  0.34549941     0.42850
N108        N  0.46102621  0.40451800  0.30057656     0.01740
C109        C  0.63522741  0.57577271  0.17831277    -0.06140
H110        H  0.65177083  0.61248444  0.32752096     0.07230
C111        C  0.49419660  0.60682964  0.32896382    -0.06490
Co112      Co  0.54678079  0.46421970  0.25200987     0.74180
N113        N  0.59891003  0.55170592  0.30016181    -0.25670
Co114      Co  0.57170333  0.57356989  0.25224223     0.74070
C115        C  0.53768165  0.64029364  0.34559642     0.42950
N116        N  0.41570629  0.49040627  0.30087878     0.01360
N117        N  0.54472235  0.59622318  0.30062466     0.01460
N118        N  0.61707029  0.50418941  0.17743494    -0.46510
H119        H  0.54289910  0.39533391  0.33275405     0.07220
N120        N  0.59005972  0.51031331  0.30089713     0.01750
N121        N  0.54545350  0.59596697  0.20378070     0.01490
C122        C  0.54127294  0.64233924  0.16001470     0.43090
N123        N  0.40685477  0.44901461  0.30012419    -0.25120
C124        C  0.50877834  0.39095728  0.17609729    -0.06040
N125        N  0.43825100  0.36888119  0.32620705    -0.46230
N126        N  0.56951092  0.63173951  0.17893158    -0.46450
C127        C  0.46443740  0.35839700  0.16008130     0.42860
N128        N  0.58924735  0.50968337  0.20301573     0.01730
N129        N  0.40629030  0.44925706  0.20429406    -0.25140
N130        N  0.50394118  0.41924723  0.30081926    -0.25640
N131        N  0.41650206  0.49106217  0.20301564     0.01370
H132        H  0.35231888  0.38932648  0.17636478     0.07260
H133        H  0.46644781  0.61012121  0.17220621     0.07300
N134        N  0.59945602  0.55148835  0.20430087    -0.25690
N135        N  0.50180531  0.58148495  0.30085298    -0.25300
N136        N  0.46030073  0.40482551  0.20376175     0.01740
C137        C  0.64797809  0.54658188  0.34270709     0.43140
C138        C  0.37128299  0.42385587  0.32577940    -0.06550
N139        N  0.50279526  0.58257145  0.20349024    -0.25300
H140        H  0.46282222  0.60535158  0.33282120     0.07280
N141        N  0.61917544  0.50608473  0.32580649    -0.46520
H142        H  0.35396683  0.38820823  0.32739314     0.07270
C143        C  0.35878309  0.45651850  0.16069308     0.42970
C144        C  0.51153244  0.39387380  0.32890204    -0.06050
Co145      Co  0.43405787  0.42718611  0.25221344     0.73820
N146        N  0.38657130  0.49461326  0.32576193    -0.46240
C147        C  0.64689884  0.54420712  0.16060878     0.43240
N148        N  0.43621912  0.36903243  0.17895449    -0.46230
Co149      Co  0.45897568  0.53652364  0.25201517     0.73890
C150        C  0.49694447  0.60977229  0.17606264    -0.06550
C151        C  0.63446121  0.57683959  0.32586459    -0.06120
N152        N  0.50295306  0.41819787  0.20348149    -0.25640
N153        N  0.56748082  0.63184261  0.32629244    -0.46410
H154        H  0.65337232  0.61140306  0.17629734     0.07240
C155        C  0.37047820  0.42495905  0.17835383    -0.06530
Cl156      Cl  0.50288038  0.50037645  0.25209542    -0.49530
C157        C  0.35775849  0.45410288  0.34261348     0.43000
H158        H  0.53925602  0.39056545  0.17228102     0.07210
N159        N  0.38863977  0.49654320  0.17748769    -0.46240
C160        C  0.86886571  0.55000961  0.36752096     0.42850
N161        N  0.81145530  0.53826282  0.40450241     0.01740
C162        C  0.77113267  0.67381135  0.04396694    -0.06140
H163        H  0.91894050  0.67496326  0.07940506     0.07230
C164        C  0.82268097  0.50907453  0.11834534    -0.06490
Co165      Co  0.81253152  0.61795415  0.44406088     0.74180
N166        N  0.86856742  0.64624385  0.02800595    -0.25670
Co167      Co  0.80933445  0.61231112  0.06368740     0.74070
C168        C  0.86430350  0.54390444  0.13468295     0.42950
N169        N  0.77537786  0.47012699  0.01888838     0.01360
N170        N  0.83159838  0.57239460  0.09721608     0.01460
N171        N  0.77307258  0.67653160  0.46744193    -0.46510
H172        H  0.90242969  0.62531056  0.38080023     0.07220
N173        N  0.87001246  0.64849984  0.48325738     0.01750
N174        N  0.74673084  0.57613746  0.09738445     0.01490
C175        C  0.68622687  0.55112675  0.13534359     0.43090
N176        N  0.77600296  0.47094094  0.47439192    -0.25120
C177        C  0.72698260  0.59794784  0.38369461    -0.06040
N178        N  0.82875355  0.51891913  0.38068087    -0.46230
N179        N  0.72300589  0.58904899  0.12172859    -0.46450
C180        C  0.68936523  0.55670604  0.36574175     0.42860
N181        N  0.78849995  0.65146075  0.48313500     0.01730
N182        N  0.69408693  0.47602689  0.47364193    -0.25140
N183        N  0.83667995  0.58151632  0.40711760    -0.25640
N184        N  0.69331367  0.47550179  0.01810563     0.01370
H185        H  0.64434524  0.46667572  0.42432298     0.07260
H186        H  0.66679869  0.47962998  0.12192483     0.07300
N187        N  0.78751312  0.64921828  0.02789885    -0.25690
N188        N  0.80576902  0.52931498  0.09460164    -0.25300
N189        N  0.73226762  0.54169129  0.40320950     0.01740
C190        C  0.93701867  0.68753811  0.50413091     0.43140
C191        C  0.80482387  0.45916675  0.46001587    -0.06550
N192        N  0.72656805  0.53289702  0.09448520    -0.25300
H193        H  0.80815542  0.47377409  0.12204849     0.07280
N194        N  0.91062450  0.67304481  0.46758754    -0.46520
H195        H  0.81446392  0.45794316  0.42584320     0.07270
C196        C  0.63142083  0.46791862  0.99879942     0.42970
C197        C  0.87450252  0.59236424  0.38450204    -0.06050
Co198      Co  0.75265419  0.50509825  0.43836067     0.73820
N199        N  0.80455613  0.46095189  0.03596659    -0.46240
C200        C  0.76195993  0.69183441  0.00395621     0.43240
N201        N  0.69617778  0.52418975  0.37858470    -0.46230
Co202      Co  0.74952718  0.50058805  0.05654858     0.73890
C203        C  0.68960030  0.51463454  0.11843812    -0.06550
C204        C  0.90965880  0.67001341  0.04414292    -0.06120
N205        N  0.75219557  0.58498907  0.40648416    -0.25640
N206        N  0.86810889  0.58296577  0.12095408    -0.46410
H207        H  0.76617381  0.67826197  0.07919049     0.07240
C208        C  0.65466288  0.46798821  0.45874500    -0.06530
Cl209      Cl  0.78137855  0.55950554  0.00065966    -0.49530
C210        C  0.82557249  0.45658715  0.50072369     0.43000
H211        H  0.73376960  0.63152671  0.38032544     0.07210
N212        N  0.65571518  0.46960902  0.03433199    -0.46240
C213        C  0.68765055  0.13526458  0.36685612     0.42850
N214        N  0.73366253  0.19303530  0.40328635     0.01740
C215        C  0.90773155  0.23239843  0.04434696    -0.06140
H216        H  0.75963986  0.08363833  0.07827204     0.07230
C217        C  0.68994662  0.17837468  0.11668290    -0.06490
Co218      Co  0.81133508  0.19140064  0.44388061     0.74180
N219        N  0.78255664  0.13453700  0.02731195    -0.25670
Co220      Co  0.80766101  0.19343678  0.06349024     0.74070
C221        C  0.68371099  0.13717940  0.13370603     0.42950
N222        N  0.69956172  0.22650722  0.01725067     0.01360
N223        N  0.74513049  0.17046522  0.09657464     0.01460
N224        N  0.90889139  0.23088058  0.46779201    -0.46510
H225        H  0.72863454  0.10130087  0.38123184     0.07220
N226        N  0.78380268  0.13352757  0.48256314     0.01750
N227        N  0.83365165  0.25572535  0.09766730     0.01490
C228        C  0.86905438  0.31615704  0.13590586     0.43090
N229        N  0.70075307  0.22753352  0.47279026    -0.25120
C230        C  0.87765033  0.27740702  0.38414180    -0.06040
N231        N  0.69705346  0.17565009  0.37937897    -0.46230
N232        N  0.87043358  0.27968620  0.12181190    -0.46450
C233        C  0.87441052  0.31533017  0.36661141     0.42860
N234        N  0.86832868  0.21515663  0.48335942     0.01730
N235        N  0.78789022  0.30940416  0.47441900    -0.25140
N236        N  0.75126628  0.16755825  0.40644515    -0.25640
N237        N  0.78693312  0.30944443  0.01887493     0.01370
H238        H  0.82977206  0.36000742  0.42648222     0.07260
H239        H  0.81654548  0.33498305  0.12311527     0.07300
N240        N  0.86676723  0.21583484  0.02812248    -0.25690
N241        N  0.72740562  0.19575449  0.09341536    -0.25300
N242        N  0.81633970  0.27237722  0.40388993     0.01740
C243        C  0.75477756  0.06623354  0.50286742     0.43140
C244        C  0.66052547  0.19917203  0.45702377    -0.06550
N245        N  0.81022466  0.27546855  0.09516702    -0.25300
H246        H  0.66890895  0.19256200  0.12003081     0.07280
N247        N  0.76733309  0.09296720  0.46655116    -0.46520
H248        H  0.65042448  0.19117380  0.42240973     0.07270
C249        C  0.84183797  0.37191542  0.00142222     0.42970
C250        C  0.72405947  0.12950815  0.38422919    -0.06050
Co251      Co  0.75889684  0.25147408  0.43801630     0.73820
N252        N  0.66082536  0.19631292  0.03286406    -0.46240
C253        C  0.93509550  0.24190084  0.00438902     0.43240
N254        N  0.83519915  0.30866601  0.37956652    -0.46230
Co255      Co  0.75527676  0.25248050  0.05623758     0.73890
C256        C  0.82881464  0.31231583  0.11945936    -0.06550
C257        C  0.76456721  0.09324828  0.04310221    -0.06120
N258        N  0.83937074  0.25217003  0.40686325    -0.25640
N259        N  0.71942937  0.13399852  0.12058424    -0.46410
H260        H  0.91702899  0.23727372  0.07960482     0.07240
C261        C  0.81977702  0.34910507  0.46060298    -0.06530
Cl262      Cl  0.78344353  0.22184232  0.00041965    -0.49530
C263        C  0.63642780  0.17624994  0.49659811     0.43000
H264        H  0.90421354  0.27039738  0.38047597     0.07210
N265        N  0.81805801  0.34694427  0.03613081    -0.46240
C266        C  0.31835425  0.86580698  0.36688262     0.42850
N267        N  0.27230020  0.80804283  0.40324885     0.01740
C268        C  0.09814508  0.76856062  0.04425003    -0.06140
H269        H  0.24610497  0.91732460  0.07827764     0.07230
C270        C  0.31591869  0.82253220  0.11659350    -0.06490
Co271      Co  0.19460753  0.80967606  0.44379845     0.74180
N272        N  0.22330086  0.86646993  0.02727361    -0.25670
Co273      Co  0.19822794  0.80756902  0.06339311     0.74070
C274        C  0.32219339  0.86373565  0.13363708     0.42950
N275        N  0.30630999  0.77450251  0.01711207     0.01360
N276        N  0.26077160  0.83051027  0.09648021     0.01460
N277        N  0.09700833  0.77012818  0.46770785    -0.46510
H278        H  0.27740778  0.89981758  0.38123830     0.07220
N279        N  0.22211043  0.86748530  0.48252676     0.01750
N280        N  0.17223494  0.74528034  0.09751014     0.01490
C281        C  0.13680921  0.68484029  0.13569561     0.43090
N282        N  0.30511769  0.77336412  0.47264576    -0.25120
C283        C  0.12833679  0.72379048  0.38394362    -0.06040
N284        N  0.30891832  0.82541254  0.37937574    -0.46230
N285        N  0.13546150  0.72133813  0.12165829    -0.46450
C286        C  0.13161933  0.68592256  0.36633575     0.42860
N287        N  0.13758561  0.78587587  0.48326418     0.01730
N288        N  0.21789389  0.69159472  0.47416936    -0.25140
N289        N  0.25471330  0.83353647  0.40641092    -0.25640
N290        N  0.21887720  0.69159053  0.01860901     0.01370
H291        H  0.17597458  0.64108210  0.42616339     0.07260
H292        H  0.18926327  0.66595123  0.12283684     0.07300
N293        N  0.13911127  0.78517371  0.02802001    -0.25690
N294        N  0.27846604  0.80519407  0.09330757    -0.25300
N295        N  0.18964165  0.72880129  0.40368072     0.01740
C296        C  0.25098040  0.93473056  0.50288108     0.43140
C297        C  0.34536969  0.80167009  0.45690527    -0.06550
N298        N  0.19562917  0.72550734  0.09496296    -0.25300
H299        H  0.33693564  0.80831938  0.11992997     0.07280
N300        N  0.23848016  0.90803469  0.46654297    -0.46520
H301        H  0.35548179  0.80969629  0.42229855     0.07270
C302        C  0.16393123  0.62914830  0.00104954     0.42970
C303        C  0.28195607  0.87159343  0.38423159    -0.06050
Co304      Co  0.24700396  0.74956750  0.43785849     0.73820
N305        N  0.34502696  0.80470332  0.03276870    -0.46240
C306        C  0.07075887  0.75904096  0.00430172     0.43240
N307        N  0.17082235  0.69257139  0.37927630    -0.46230
Co308      Co  0.25057466  0.74850504  0.05605766     0.73890
C309        C  0.17701930  0.68864236  0.11921619    -0.06550
C310        C  0.24121316  0.90773609  0.04309994    -0.06120
N311        N  0.16659861  0.74898851  0.40670336    -0.25640
N312        N  0.28649555  0.86695904  0.12051343    -0.46410
H313        H  0.08885756  0.76365445  0.07950779     0.07240
C314        C  0.18594789  0.65194308  0.46030067    -0.06530
Cl315      Cl  0.22245132  0.77921958  0.00028715    -0.49530
C316        C  0.36948240  0.82450685  0.49650799     0.43000
H317        H  0.10176690  0.73079394  0.38030135     0.07210
N318        N  0.18770265  0.65408425  0.03579429    -0.46240
C319        C  0.46764815  0.83497221  0.50482060     0.42850
N320        N  0.47597411  0.78097609  0.48637953     0.01740
C321        C  0.59557058  0.72120222  0.11998317    -0.06140
H322        H  0.63294545  0.90084698  0.12302801     0.07230
C323        C  0.67377117  0.90474510  0.45912694    -0.06490
Co324      Co  0.50719641  0.75396250  0.06662648     0.74180
N325        N  0.58660135  0.83553586  0.09721976    -0.25670
Co326      Co  0.61997753  0.80832274  0.06000876     0.74070
C327        C  0.69157998  0.93237286  0.49889727     0.42950
N328        N  0.57658356  0.82975228  0.40669911     0.01360
N329        N  0.65241989  0.86546313  0.02033614     0.01460
N330        N  0.52235665  0.69376224  0.12529241    -0.46510
H331        H  0.46682702  0.82186540  0.07953465     0.07220
N332        N  0.54333726  0.81196894  0.10052029     0.01750
N333        N  0.65097460  0.78161620  0.02102788     0.01490
C334        C  0.69061416  0.75430220  0.00020790     0.43090
N335        N  0.53337403  0.80617659  0.40963792    -0.25120
C336        C  0.46311481  0.65536957  0.04720154    -0.06040
N337        N  0.46940035  0.81206319  0.46962147    -0.46230
N338        N  0.67603115  0.76618415  0.03671737    -0.46450
C339        C  0.46204998  0.63162545  0.00735383     0.42860
N340        N  0.54135298  0.73014973  0.10109212     0.01730
N341        N  0.53140265  0.72388096  0.41076227    -0.25140
N342        N  0.47666598  0.78135251  0.03083249    -0.25640
N343        N  0.57445869  0.74192248  0.40758290     0.01370
H344        H  0.47613757  0.66515231  0.38426150     0.07260
H345        H  0.67734015  0.75885579  0.42496257     0.07300
N346        N  0.58447202  0.74812429  0.09766261    -0.25690
N347        N  0.64996075  0.86377028  0.47560315    -0.25300
N348        N  0.47347770  0.69450889  0.48729562     0.01740
C349        C  0.55819633  0.87021456  0.13751074     0.43140
C350        C  0.51496533  0.82484913  0.38566255    -0.06550
N351        N  0.64849566  0.78037257  0.47629405    -0.25300
H352        H  0.67783557  0.91386274  0.42382228     0.07280
N353        N  0.52576005  0.83064682  0.12487494    -0.46520
H354        H  0.47997981  0.81249222  0.38222334     0.07270
C355        C  0.54645408  0.68056561  0.37050977     0.42970
C356        C  0.46797482  0.81240605  0.04525925    -0.06050
Co357      Co  0.50209456  0.75065727  0.44845289     0.73820
N358        N  0.58925330  0.86647941  0.38250420    -0.46240
C359        C  0.55344685  0.68467826  0.13768995     0.43240
N360        N  0.46570166  0.65610305  0.47137010    -0.46230
Co361      Co  0.61365633  0.80452255  0.44049566     0.73890
C362        C  0.67258147  0.76342997  0.46020746    -0.06550
C363        C  0.59943086  0.87389805  0.11971125    -0.06120
N364        N  0.47390148  0.69548256  0.03178156    -0.25640
N365        N  0.67694176  0.90623936  0.03566287    -0.46410
H366        H  0.62845492  0.72606251  0.12291737     0.07240
C367        C  0.51139325  0.68647525  0.38743906    -0.06530
Cl368      Cl  0.56125040  0.77955796  0.00387888    -0.49530
C369        C  0.55138347  0.86517238  0.36879817     0.43000
H370        H  0.46152896  0.64513781  0.08169451     0.07210
N371        N  0.58537496  0.71641925  0.38357515    -0.46240
C372        C  0.13719799  0.45125742  0.36755474     0.42850
N373        N  0.19461134  0.46288207  0.40447387     0.01740
C374        C  0.23457498  0.32705482  0.04395792    -0.06140
H375        H  0.08689146  0.32615596  0.07934806     0.07230
C376        C  0.18321329  0.49208706  0.11803445    -0.06490
Co377      Co  0.19330821  0.38304423  0.44400714     0.74180
N378        N  0.13723866  0.35483478  0.02793629    -0.25670
Co379      Co  0.19644810  0.38865760  0.06363424     0.74070
C380        C  0.14156769  0.45728255  0.13439232     0.42950
N381        N  0.23105927  0.53111108  0.01873511     0.01360
N382        N  0.17429031  0.42872013  0.09706565     0.01460
N383        N  0.23267748  0.32437687  0.46743489    -0.46510
H384        H  0.10350810  0.37595065  0.38080884     0.07220
N385        N  0.13582889  0.35261542  0.48318255     0.01750
N386        N  0.25900450  0.42468999  0.09741377     0.01490
C387        C  0.31944009  0.44961708  0.13547708     0.43090
N388        N  0.23046360  0.53035148  0.47423605    -0.25120
C389        C  0.27873939  0.40279842  0.38359223    -0.06040
N390        N  0.17734670  0.48229782  0.38070545    -0.46230
N391        N  0.28265839  0.41172033  0.12180274    -0.46450
C392        C  0.31638388  0.44400142  0.36561443     0.42860
N393        N  0.21724174  0.34944909  0.48310987     0.01730
N394        N  0.31204603  0.52469229  0.47363015    -0.25140
N395        N  0.16930735  0.41963180  0.40707885    -0.25640
N396        N  0.31277889  0.52513297  0.01810242     0.01370
H397        H  0.36174565  0.53369850  0.42441893     0.07260
H398        H  0.33898711  0.52113756  0.12204364     0.07300
N399        N  0.21817831  0.35163447  0.02787906    -0.25690
N400        N  0.20015508  0.47179861  0.09440029    -0.25300
N401        N  0.27362152  0.45913766  0.40313845     0.01740
C402        C  0.06883710  0.31361908  0.50406901     0.43140
C403        C  0.20194176  0.54247219  0.45975768    -0.06550
N404        N  0.27922146  0.46792752  0.09454048    -0.25300
H405        H  0.19776076  0.52739168  0.12172567     0.07280
N406        N  0.09521260  0.32807177  0.46751654    -0.46520
H407        H  0.19239774  0.54374273  0.42555105     0.07270
C408        C  0.37455394  0.53226364  0.99893575     0.42970
C409        C  0.13148765  0.40886722  0.38449859    -0.06050
Co410      Co  0.25348409  0.49589039  0.43829378     0.73820
N411        N  0.20209341  0.54061707  0.03573484    -0.45820
C412        C  0.24375649  0.30901745  0.00395614     0.43240
N413        N  0.30966787  0.47656782  0.37847275    -0.46230
Co414      Co  0.25652370  0.50036295  0.05647641     0.73890
C415        C  0.31614042  0.48614124  0.11856626    -0.06550
C416        C  0.09615668  0.33110643  0.04408352    -0.06120
N417        N  0.25361460  0.41584196  0.40641746    -0.25640
N418        N  0.13777144  0.41820320  0.12075512    -0.46410
H419        H  0.23957971  0.32265365  0.07918223     0.07240
C420        C  0.35141383  0.53248452  0.45881729    -0.06530
Cl421      Cl  0.22454898  0.44143598  0.00059933    -0.49530
C422        C  0.18129937  0.54531363  0.50041600     0.43000
H423        H  0.27187257  0.36919355  0.38020570     0.07210
N424        N  0.35027039  0.53078810  0.03439435    -0.46240
C425        C  0.53830189  0.16599835  0.50480098     0.42850
N426        N  0.52981666  0.21988182  0.48632488     0.01740
C427        C  0.41006404  0.27951188  0.12023120    -0.06140
H428        H  0.37277848  0.09985024  0.12323526     0.07230
C429        C  0.33183229  0.09608932  0.45910575    -0.06490
Co430      Co  0.49820921  0.24668090  0.06664428     0.74180
N431        N  0.41903547  0.16517920  0.09741632    -0.25670
Co432      Co  0.38570922  0.19245333  0.06023327     0.74070
C433        C  0.31398212  0.06850766  0.49888773     0.42950
N434        N  0.42914319  0.17099161  0.40667325     0.01360
N435        N  0.35332399  0.13540075  0.02035226     0.01460
N436        N  0.48328464  0.30690296  0.12548648    -0.46510
H437        H  0.53881065  0.17896746  0.07944211     0.07220
N438        N  0.46229114  0.18876455  0.10064329     0.01750
N439        N  0.35479663  0.21921663  0.02104154     0.01490
C440        C  0.31525477  0.24666211  0.00020524     0.43090
N441        N  0.47235376  0.19458091  0.40962233    -0.25120
C442        C  0.54204566  0.34523728  0.04705181    -0.06040
N443        N  0.53646379  0.18883594  0.46958236    -0.46230
N444        N  0.32979621  0.23472543  0.03671038    -0.46450
C445        C  0.54300440  0.36892842  0.00719871     0.42860
N446        N  0.46423150  0.27051904  0.10128882     0.01730
N447        N  0.47429584  0.27683786  0.41066232    -0.25140
N448        N  0.52866473  0.21927936  0.03074476    -0.25640
N449        N  0.43124261  0.25880972  0.40749633     0.01370
H450        H  0.52956237  0.33551846  0.38411479     0.07260
H451        H  0.32843605  0.24203409  0.42493232     0.07300
N452        N  0.42112945  0.25257860  0.09790319    -0.25690
N453        N  0.35574541  0.13705282  0.47557175    -0.25300
N454        N  0.53218757  0.30629289  0.48720353     0.01740
C455        C  0.44756790  0.13056150  0.13760323     0.43140
C456        C  0.49078418  0.17592606  0.38566176    -0.06550
N457        N  0.35724829  0.22045820  0.47624856    -0.25300
H458        H  0.32770480  0.08695753  0.42380214     0.07280
N459        N  0.47995587  0.17013487  0.12493511    -0.46520
H460        H  0.52577387  0.18831070  0.38222235     0.07270
C461        C  0.45924950  0.32012247  0.37037158     0.42970
C462        C  0.53751973  0.18833657  0.04516456    -0.06050
Co463      Co  0.50362424  0.25012308  0.44839018     0.73820
N464        N  0.41649894  0.13426479  0.38247601    -0.46240
C465        C  0.45221813  0.31600881  0.13790015     0.43240
N466        N  0.53987658  0.34466004  0.47125431    -0.46230
Co467      Co  0.39206132  0.19625508  0.44044601     0.73890
C468        C  0.33319391  0.23744819  0.46017469    -0.06550
C469        C  0.40627539  0.12682672  0.11989168    -0.06120
N470        N  0.53130465  0.30511755  0.03167968    -0.25640
N471        N  0.32872514  0.09464064  0.03566560    -0.46410
H472        H  0.37719319  0.27468556  0.12316937     0.07240
C473        C  0.49430639  0.31420965  0.38729863    -0.06530
Cl474      Cl  0.44396219  0.22100744  0.00391979    -0.49530
C475        C  0.45438875  0.13559693  0.36878792     0.43000
H476        H  0.54373608  0.35553775  0.08153185     0.07210
N477        N  0.42032540  0.28429953  0.38346863    -0.46240
C478        C  0.28816589  0.26660038  0.00166225    -0.12880
C479        C  0.26688500  0.28494150  0.00244025    -0.14440
C480        C  0.42036632  0.55138947  0.00178151    -0.12880
C481        C  0.45096840  0.58726427  0.00504269    -0.14440
C482        C  0.29001253  0.02135324  0.50010657    -0.12880
C483        C  0.27146970  0.98173826  0.50108164    -0.14440
C484        C  0.14655307  0.55408103  0.50374107    -0.12880
C485        C  0.13891369  0.58318645  0.00421477    -0.14440
C486        C  0.41383911  0.85763963  0.49839749    -0.12880
C487        C  0.44938059  0.86231453  0.50157944    -0.14440
C488        C  0.73414277  0.01918891  0.50104414    -0.12880
C489        C  0.71553851  0.97955502  0.50009301    -0.14440
C490        C  0.02186216  0.28653536  0.50271927    -0.12880
C491        C  0.98223857  0.26518290  0.00290305    -0.14440
C492        C  0.55654285  0.13863097  0.50158185    -0.12880
C493        C  0.59204296  0.14319462  0.49845213    -0.14440
C494        C  0.98401552  0.71453451  0.50274482    -0.12880
C495        C  0.02360182  0.73579544  0.00284531    -0.14440
C496        C  0.73892647  0.71598846  0.00243447    -0.12880
C497        C  0.71769317  0.73436997  0.00166252    -0.14440
C498        C  0.85997145  0.44728698  0.00418045    -0.12880
C499        C  0.86714764  0.41785823  0.00467313    -0.14440
C500        C  0.55468409  0.41344334  0.00483601    -0.12880
C501        C  0.58564097  0.44908652  0.00158265    -0.14440
C502        C  0.36067570  0.89618912  0.84440056     0.42850
N503        N  0.40729513  0.94734364  0.80102462     0.01740
C504        C  0.57873721  0.94502041  0.67841405    -0.06140
H505        H  0.61246550  0.95893859  0.82884465     0.07230
C506        C  0.61278712  0.11650750  0.82807193    -0.06490
Co507      Co  0.46629153  0.92006706  0.75235322     0.74180
N508        N  0.55317842  0.95395031  0.80055828    -0.25670
Co509      Co  0.57596556  0.00448547  0.75265368     0.74070
C510        C  0.64526106  0.10489474  0.84443669     0.42950
N511        N  0.49455532  0.07847089  0.80129331     0.01360
N512        N  0.59861573  0.05361044  0.80115839     0.01460
N513        N  0.50787401  0.88975000  0.67802602    -0.46510
H514        H  0.39263803  0.85353381  0.83158443     0.07220
N515        N  0.51129847  0.92241509  0.80142791     0.01750
N516        N  0.59923370  0.05449930  0.70413181     0.01490
C517        C  0.64352316  0.10570936  0.65901207     0.43090
N518        N  0.45268673  0.04691845  0.80036291    -0.25120
C519        C  0.39587611  0.88508970  0.67544714    -0.06040
N520        N  0.37148721  0.93536113  0.82586834    -0.46230
N521        N  0.63489044  0.06737205  0.67852665    -0.46450
C522        C  0.36246521  0.89514373  0.65889241     0.42860
N523        N  0.51236028  0.92294462  0.70347214     0.01730
N524        N  0.45213585  0.04548126  0.70430670    -0.25140
N525        N  0.42043287  0.91786933  0.80095084    -0.25640
N526        N  0.49359774  0.07792247  0.70333062     0.01370
H527        H  0.39162286  0.03749494  0.67643211     0.07260
H528        H  0.60868047  0.14569249  0.67147222     0.07300
N529        N  0.55383306  0.95536438  0.70449286    -0.25690
N530        N  0.58546496  0.08307739  0.80099010    -0.25300
N531        N  0.40675798  0.94637413  0.70399894     0.01740
C532        C  0.54489809  0.89821701  0.84382262     0.43140
C533        C  0.42890485  0.05906356  0.82631645    -0.06550
N534        N  0.58458365  0.08274139  0.70362655    -0.25300
H535        H  0.61327004  0.14749307  0.83145454     0.07280
N536        N  0.50523508  0.88860732  0.82668687    -0.46520
H537        H  0.39333304  0.04184513  0.82854379     0.07270
C538        C  0.45766724  0.09940033  0.66083263     0.42970
C539        C  0.39312220  0.88451181  0.82809955    -0.06050
Co540      Co  0.42997892  0.99639919  0.75248608     0.73820
N541        N  0.50055294  0.11225880  0.82654700    -0.46240
C542        C  0.54827023  0.90143674  0.66100537     0.43240
N543        N  0.37112486  0.93350867  0.67835515    -0.46230
Co544      Co  0.53962708  0.08082090  0.75230823     0.73890
C545        C  0.61007743  0.11573797  0.67549085    -0.06550
C546        C  0.57689704  0.94175480  0.82656334    -0.06120
N547        N  0.42137677  0.91810784  0.70357309    -0.25640
N548        N  0.63444733  0.06567633  0.82600318    -0.46410
H549        H  0.61434036  0.96330998  0.67665195     0.07240
C550        C  0.42722516  0.05580144  0.67820674    -0.06530
Cl551      Cl  0.50297228  0.00044495  0.75256410    -0.49530
C552        C  0.46084867  0.10259576  0.84360845     0.43000
H553        H  0.39723840  0.85511109  0.67148206     0.07210
N554        N  0.49806472  0.11111678  0.67789342    -0.46240
C555        C  0.89879658  0.53813169  0.84398316     0.42850
N556        N  0.94912554  0.54279913  0.79930478     0.01740
C557        C  0.94577914  0.36828520  0.67712402    -0.06140
H558        H  0.96703251  0.35216439  0.82646397     0.07230
C559        C  0.11870540  0.50744342  0.82810131    -0.06490
Co560      Co  0.92276574  0.45642216  0.75176415     0.74180
N561        N  0.95878915  0.40469443  0.79892968    -0.25670
Co562      Co  0.00782896  0.43202719  0.75069231     0.74070
C563        C  0.10728552  0.46314408  0.84399779     0.42950
N564        N  0.07950320  0.58734749  0.80053183     0.01360
N565        N  0.05693291  0.45843881  0.79930850     0.01460
N566        N  0.89184215  0.38554994  0.67782825    -0.46510
H567        H  0.85680440  0.46302468  0.83254768     0.07220
N568        N  0.92652231  0.41385560  0.80063353     0.01750
N569        N  0.05759106  0.45917507  0.70227416     0.01490
C570        C  0.10977897  0.46630606  0.65866199     0.43090
N571        N  0.04722810  0.59649513  0.79883740    -0.25120
C572        C  0.88616149  0.49143450  0.67566472    -0.06040
N573        N  0.93730742  0.56664725  0.82434084    -0.46230
N574        N  0.07086611  0.43651476  0.67705739    -0.46450
C575        C  0.89613138  0.53489230  0.65884658     0.42860
N576        N  0.92560781  0.41379587  0.70277332     0.01730
N577        N  0.04834252  0.59692429  0.70297930    -0.25140
N578        N  0.92028557  0.49997417  0.80026564    -0.25640
N579        N  0.08033444  0.58731698  0.70268703     0.01370
H580        H  0.04259214  0.65078335  0.67461886     0.07260
H581        H  0.14998513  0.54107458  0.67238966     0.07300
N582        N  0.95761030  0.40420164  0.70305153    -0.25690
N583        N  0.08578362  0.50126213  0.80022243    -0.25300
N584        N  0.94839474  0.54198979  0.70230380     0.01740
C585        C  0.90548873  0.35642846  0.84302387     0.43140
C586        C  0.05728657  0.63177105  0.82483499    -0.06550
N587        N  0.08613097  0.50209808  0.70276919    -0.25300
H588        H  0.14928903  0.53823986  0.83248084     0.07280
N589        N  0.89369072  0.38517882  0.82643054    -0.46520
H590        H  0.03898036  0.64904153  0.82630874     0.07270
C591        C  0.10394209  0.64512406  0.66036835     0.42970
C592        C  0.88738367  0.49381803  0.82814597    -0.06050
Co593      Co  0.99817713  0.56914900  0.75065739     0.73820
N594        N  0.11235542  0.61606471  0.82627964    -0.46240
C595        C  0.90196065  0.35592635  0.66051386     0.43240
N596        N  0.93509029  0.56466699  0.67715911    -0.46230
Co597      Co  0.08323699  0.54475725  0.75169377     0.73890
C598        C  0.11975308  0.50975446  0.67550999    -0.06550
C599        C  0.94873252  0.36944005  0.82497058    -0.06120
N600        N  0.91983848  0.49907040  0.70283276    -0.25640
N601        N  0.06875634  0.43461824  0.82438147    -0.46410
H602        H  0.96334557  0.35031904  0.67473281     0.07240
C603        C  0.06015196  0.63281036  0.67701699    -0.06530
Cl604      Cl  0.00300073  0.50058649  0.75112958    -0.49530
C605        C  0.10054386  0.64481250  0.84284111     0.43000
H606        H  0.85589906  0.46013243  0.67261440     0.07210
N607        N  0.11407020  0.61551630  0.67769510    -0.46240
C608        C  0.46797874  0.36036411  0.84531061     0.42850
N609        N  0.46099831  0.40449845  0.80041339     0.01740
C610        C  0.63525913  0.57582025  0.67830270    -0.06140
H611        H  0.65172652  0.61242808  0.82754342     0.07230
C612        C  0.49417658  0.60681222  0.82893768    -0.06490
Co613      Co  0.54677264  0.46421851  0.75190147     0.74180
N614        N  0.59888485  0.55167055  0.80012631    -0.25670
Co615      Co  0.57169951  0.57356908  0.75221869     0.74070
C616        C  0.53765871  0.64027585  0.84558017     0.42950
N617        N  0.41568724  0.49037869  0.80080057     0.01360
N618        N  0.54470598  0.59620335  0.80061164     0.01460
N619        N  0.61709205  0.50423507  0.67737153    -0.46510
H620        H  0.54284519  0.39527718  0.83260425     0.07220
N621        N  0.59003538  0.51027754  0.80082988     0.01750
N622        N  0.54546467  0.59598820  0.70376835     0.01490
C623        C  0.54129470  0.64236372  0.66000432     0.43090
N624        N  0.40682687  0.44898454  0.80000776    -0.25120
C625        C  0.50881040  0.39101680  0.67591837    -0.06040
N626        N  0.43820493  0.36885214  0.82602048    -0.46230
N627        N  0.56952904  0.63176292  0.67892611    -0.46450
C628        C  0.46448111  0.35846006  0.65986516     0.42860
N629        N  0.58925784  0.50971399  0.70294738     0.01730
N630        N  0.40630573  0.44929145  0.70417938    -0.25140
N631        N  0.50391131  0.41921985  0.80067169    -0.25640
N632        N  0.41651226  0.49109576  0.70293760     0.01370
H633        H  0.35233290  0.38937296  0.67623685     0.07260
H634        H  0.46646570  0.61014419  0.67217222     0.07300
N635        N  0.59947140  0.55151925  0.70426501    -0.25690
N636        N  0.50178908  0.58146678  0.80082964    -0.25300
N637        N  0.46031017  0.40484604  0.70359820     0.01740
C638        C  0.64792944  0.54651550  0.84268268     0.43140
C639        C  0.37125524  0.42381560  0.82566254    -0.06550
N640        N  0.50280668  0.58259348  0.70346743    -0.25300
H641        H  0.46280373  0.60533995  0.83278221     0.07280
N642        N  0.61913756  0.50603053  0.82574577    -0.46520
H643        H  0.35393765  0.38816732  0.82726089     0.07270
C644        C  0.35879069  0.45656986  0.66062208     0.42970
C645        C  0.51148426  0.39382775  0.82874303    -0.06050
Co646      Co  0.43404988  0.42718690  0.75207229     0.73820
N647        N  0.38656108  0.49457796  0.82570884    -0.46240
C648        C  0.64693453  0.54426334  0.66058101     0.43240
N649        N  0.43624704  0.36907081  0.67875431    -0.46230
Co650      Co  0.45897219  0.53652620  0.75196581     0.73890
C651        C  0.49696234  0.60979714  0.67603986    -0.06550
C652        C  0.63442069  0.57678468  0.82585556    -0.06120
N653        N  0.50296490  0.41822742  0.70333073    -0.25640
N654        N  0.56745956  0.63182226  0.82628286    -0.46410
H655        H  0.65341136  0.61145221  0.67631899     0.07240
C656        C  0.37049307  0.42500478  0.67824018    -0.06530
Cl657      Cl  0.50287456  0.50037695  0.75201508    -0.49530
C658        C  0.35774200  0.45405965  0.84254083     0.43000
H659        H  0.53929574  0.39064051  0.67209931     0.07210
N660        N  0.38864298  0.49658716  0.67743382    -0.46240
C661        C  0.86883705  0.54999022  0.86751917     0.42850
N662        N  0.81142116  0.53823034  0.90449690     0.01740
C663        C  0.77119280  0.67386320  0.54397244    -0.06140
H664        H  0.91897904  0.67500602  0.57941184     0.07230
C665        C  0.82270808  0.50909631  0.61833744    -0.06490
Co666      Co  0.81248059  0.61790843  0.94405802     0.74180
N667        N  0.86861030  0.64627554  0.52801053    -0.25670
Co668      Co  0.80938263  0.61235376  0.56369203     0.74070
C669        C  0.86433046  0.54392094  0.63468339     0.42950
N670        N  0.77537581  0.47015388  0.51888414     0.01360
N671        N  0.83163555  0.57242340  0.59721756     0.01460
N672        N  0.77301169  0.67647818  0.96743645    -0.46510
H673        H  0.90238916  0.62528908  0.88080403     0.07220
N674        N  0.86996900  0.64846809  0.98325260     0.01750
N675        N  0.74678322  0.57619572  0.59739237     0.01490
C676        C  0.68628009  0.55118973  0.63534886     0.43090
N677        N  0.77600892  0.47091600  0.97439562    -0.25120
C678        C  0.72692215  0.59787633  0.88369222    -0.06040
N679        N  0.82872630  0.51889401  0.88067491    -0.46230
N680        N  0.72305755  0.58911130  0.62172970    -0.46450
C681        C  0.68930139  0.55663056  0.86575015     0.42860
N682        N  0.78844045  0.65140854  0.98313024     0.01730
N683        N  0.69406244  0.47593701  0.97364135    -0.25140
N684        N  0.83663931  0.58148387  0.90711474    -0.25640
N685        N  0.69334281  0.47559675  0.51810605     0.01370
H686        H  0.64430534  0.46651019  0.92431005     0.07260
H687        H  0.66685143  0.47969191  0.62193839     0.07300
N688        N  0.78757142  0.64926906  0.52790377    -0.25690
N689        N  0.80580172  0.52934431  0.59459661    -0.25300
N690        N  0.73220916  0.54162429  0.90322330     0.01740
C691        C  0.93698211  0.68749815  0.00412407     0.43140
C692        C  0.80484984  0.45916614  0.96002375    -0.06550
N693        N  0.72662018  0.53295602  0.59449904    -0.25300
H694        H  0.80817637  0.47379509  0.62203975     0.07280
N695        N  0.91058326  0.67300651  0.96758225    -0.46520
H696        H  0.81449658  0.45794818  0.92585268     0.07270
C697        C  0.63148908  0.46813403  0.49880817     0.42970
C698        C  0.87446509  0.59234035  0.88450184    -0.06050
Co699      Co  0.75262747  0.50504721  0.93836330     0.73820
N700        N  0.80454004  0.46095748  0.53595927    -0.46240
C701        C  0.76202252  0.69188833  0.50396228     0.43240
N702        N  0.69611223  0.52411557  0.87860655    -0.46230
Co703      Co  0.74955515  0.50063808  0.55654887     0.73890
C704        C  0.68965625  0.51469636  0.61845545    -0.06550
C705        C  0.90969886  0.67005012  0.54414933    -0.06120
N706        N  0.75213772  0.58492392  0.90648650    -0.25640
N707        N  0.86814177  0.58298636  0.62095982    -0.46410
H708        H  0.76623126  0.67831119  0.57919594     0.07240
C709        C  0.65461997  0.46783106  0.95873568    -0.06530
Cl710      Cl  0.78141926  0.55955309  0.50066097    -0.49530
C711        C  0.82560472  0.45660110  0.00073405     0.43000
H712        H  0.73371039  0.63145474  0.88031175     0.07210
N713        N  0.65577171  0.46977702  0.53433295    -0.46240
C714        C  0.68759374  0.13527709  0.86687265     0.42850
N715        N  0.73361579  0.19304512  0.90330373     0.01740
C716        C  0.90776821  0.23239347  0.54434086    -0.06140
H717        H  0.75969250  0.08364739  0.57827218     0.07230
C718        C  0.69001605  0.17838433  0.61671559    -0.06490
Co719      Co  0.81129290  0.19139484  0.94388336     0.74180
N720        N  0.78260936  0.13454584  0.52731194    -0.25670
Co721      Co  0.80771003  0.19344599  0.56348908     0.74070
C722        C  0.68377550  0.13718368  0.63372311     0.42950
N723        N  0.69958388  0.22643919  0.51725816     0.01360
N724        N  0.74518792  0.17046674  0.59658390     0.01460
N725        N  0.90885794  0.23088562  0.96779942    -0.46510
H726        H  0.72858027  0.10131135  0.88122421     0.07220
N727        N  0.78375155  0.13351926  0.98256353     0.01750
N728        N  0.83369592  0.25574123  0.59766050     0.01490
C729        C  0.86909012  0.31617569  0.63589759     0.43090
N730        N  0.70074344  0.22760213  0.97278338    -0.25120
C731        C  0.87762236  0.27739158  0.88414523    -0.06040
N732        N  0.69699724  0.17566033  0.87940930    -0.46230
N733        N  0.87047450  0.27970586  0.62180887    -0.46450
C734        C  0.87439152  0.31531908  0.86661320     0.42860
N735        N  0.86829111  0.21514678  0.98336471     0.01730
N736        N  0.78790280  0.30942777  0.97442668    -0.25140
N737        N  0.75121864  0.16756545  0.90645061    -0.25640
N738        N  0.78693046  0.30942334  0.51886685     0.01370
H739        H  0.82981237  0.36002600  0.92649872     0.07260
H740        H  0.81657440  0.33499144  0.62310146     0.07300
N741        N  0.86680715  0.21584440  0.52811697    -0.25690
N742        N  0.72746583  0.19575790  0.59343587    -0.25300
N743        N  0.81631681  0.27237470  0.90389027     0.01740
C744        C  0.75472535  0.06622394  0.00286743     0.43140
C745        C  0.66050122  0.19931684  0.95700103    -0.06550
N746        N  0.81026539  0.27548093  0.59515474    -0.25300
H747        H  0.66897897  0.19257239  0.62006414     0.07280
N748        N  0.76728315  0.09295871  0.96655145    -0.46520
H749        H  0.65041154  0.19133377  0.92238068     0.07270
C750        C  0.84181310  0.37190380  0.50140342     0.42970
C751        C  0.72400658  0.12951879  0.88423180    -0.06050
Co752      Co  0.75888197  0.25149676  0.93802101     0.73820
N753        N  0.66088186  0.19617503  0.53287713    -0.46240
C754        C  0.93512524  0.24188370  0.50438185     0.43240
N755        N  0.83518256  0.30866246  0.87956612    -0.46230
Co756      Co  0.75530726  0.25246578  0.55623781     0.73890
C757        C  0.82885063  0.31233015  0.61944423    -0.06550
C758        C  0.76462058  0.09325747  0.54310241    -0.06120
N759        N  0.83934048  0.25216071  0.90686547    -0.25640
N760        N  0.71948717  0.13399664  0.62058888    -0.46410
H761        H  0.91706591  0.23725968  0.57959876     0.07240
C762        C  0.81980629  0.34912302  0.96061717    -0.06530
Cl763      Cl  0.78348007  0.22183862  0.50041749    -0.49530
C764        C  0.63635492  0.17645363  0.99657417     0.43000
H765        H  0.90418157  0.27037570  0.88048188     0.07210
N766        N  0.81804803  0.34693036  0.53611689    -0.46240
C767        C  0.31834620  0.86586070  0.86683687     0.42850
N768        N  0.27231499  0.80810566  0.90323783     0.01740
C769        C  0.09816017  0.76858310  0.54425414    -0.06140
H770        H  0.24609872  0.91729814  0.57827567     0.07230
C771        C  0.31591205  0.82247570  0.61657274    -0.06490
Co772      Co  0.19460589  0.80970581  0.94379516     0.74180
N773        N  0.22331546  0.86644504  0.52727137    -0.25670
Co774      Co  0.19823150  0.80754295  0.56338961     0.74070
C775        C  0.32220398  0.86369331  0.63359063     0.42950
N776        N  0.30627328  0.77440831  0.51711226     0.01360
N777        N  0.26077136  0.83046468  0.59646217     0.01460
N778        N  0.09699512  0.77010990  0.96770525    -0.46510
H779        H  0.27737981  0.89985311  0.88118683     0.07220
N780        N  0.22209621  0.86751112  0.98252854     0.01750
N781        N  0.17222293  0.74525563  0.59751291     0.01490
C782        C  0.13679590  0.68482707  0.63571423     0.43090
N783        N  0.30515627  0.77346208  0.97264520    -0.25120
C784        C  0.12834719  0.72380805  0.88395381    -0.06040
N785        N  0.30892432  0.82547492  0.87934942    -0.46230
N786        N  0.13545422  0.72132709  0.62167236    -0.46450
C787        C  0.13163561  0.68594246  0.86635085     0.42860
N788        N  0.13757688  0.78588260  0.98326245     0.01730
N789        N  0.21795423  0.69166238  0.97416386    -0.25140
N790        N  0.25471569  0.83358838  0.90639576    -0.25640
N791        N  0.21881839  0.69152365  0.51861453     0.01370
H792        H  0.17606077  0.64113898  0.92615451     0.07260
H793        H  0.18923311  0.66591696  0.62284966     0.07300
N794        N  0.13912064  0.78516878  0.52802159    -0.25690
N795        N  0.27845305  0.80513633  0.59329800    -0.25300
N796        N  0.18966636  0.72884212  0.90367723     0.01740
C797        C  0.25098231  0.93475691  0.00288336     0.43140
C798        C  0.34540380  0.80178901  0.95690865    -0.06550
N799        N  0.19560601  0.72547118  0.59496552    -0.25300
H800        H  0.33692533  0.80825894  0.61991119     0.07280
N801        N  0.23847842  0.90806184  0.96654492    -0.46520
H802        H  0.35551666  0.80982094  0.92230291     0.07270
C803        C  0.16384479  0.62909667  0.50105802     0.42970
C804        C  0.28194329  0.87163931  0.88419473    -0.06050
Co805      Co  0.24703909  0.74963493  0.93785374     0.73820
N806        N  0.34499631  0.80459734  0.53276637    -0.46240
C807        C  0.07077893  0.75908142  0.50430654     0.43240
N808        N  0.17084681  0.69260468  0.87928278    -0.46230
Co809      Co  0.25054146  0.74844109  0.55605808     0.73890
C810        C  0.17699535  0.68861306  0.61922720    -0.06550
C811        C  0.24121792  0.90771058  0.54309767    -0.06120
N812        N  0.16661304  0.74901871  0.90670196    -0.25640
N813        N  0.28651112  0.86692400  0.62047069    -0.46410
H814        H  0.08887455  0.76368764  0.57951255     0.07240
C815        C  0.18602709  0.65200207  0.96029281    -0.06530
Cl816      Cl  0.22243575  0.77917297  0.50028836    -0.49530
C817        C  0.36950938  0.82463302  0.99651315     0.43000
H818        H  0.10176839  0.73079941  0.88032040     0.07210
N819        N  0.18762831  0.65402648  0.53580123    -0.46240
C820        C  0.46762172  0.83495176  0.00482636     0.42850
N821        N  0.47594452  0.78095728  0.98637779     0.01740
C822        C  0.59559715  0.72122347  0.61998254    -0.06140
H823        H  0.63297755  0.90086405  0.62302618     0.07230
C824        C  0.67373911  0.90473356  0.95912773    -0.06490
Co825      Co  0.50722541  0.75398389  0.56662792     0.74180
N826        N  0.58663284  0.83555418  0.59721615    -0.25670
Co827      Co  0.62000770  0.80834030  0.56001006     0.74070
C828        C  0.69154700  0.93236079  0.99889880     0.42950
N829        N  0.57655347  0.82974487  0.90669214     0.01360
N830        N  0.65245099  0.86547763  0.52033695     0.01460
N831        N  0.52238322  0.69378798  0.62529227    -0.46510
H832        H  0.46685785  0.82189193  0.57953070     0.07220
N833        N  0.54336873  0.81198816  0.60051511     0.01750
N834        N  0.65100386  0.78163150  0.52103371     0.01490
C835        C  0.69064633  0.75432135  0.50021550     0.43090
N836        N  0.53334379  0.80616885  0.90963063    -0.25120
C837        C  0.46313487  0.65538716  0.54721238    -0.06040
N838        N  0.46937395  0.81204770  0.96962320    -0.46230
N839        N  0.67606341  0.76620373  0.53672450    -0.46450
C840        C  0.46206723  0.63163936  0.50736600     0.42860
N841        N  0.54138145  0.73017436  0.60109244     0.01730
N842        N  0.53137526  0.72386774  0.91074745    -0.25140
N843        N  0.47669689  0.78137541  0.53083353    -0.25640
N844        N  0.57443150  0.74191001  0.90756961     0.01370
H845        H  0.47611209  0.66513606  0.88424624     0.07260
H846        H  0.67730836  0.75884000  0.92495544     0.07300
N847        N  0.58450014  0.74814620  0.59766286    -0.25690
N848        N  0.64992993  0.86375755  0.97560201    -0.25300
N849        N  0.47345414  0.69449325  0.98728665     0.01740
C850        C  0.55822778  0.87023095  0.63750431     0.43140
C851        C  0.51493562  0.82484559  0.88565837    -0.06550
N852        N  0.64846694  0.78035950  0.97628784    -0.25300
H853        H  0.67780288  0.91385260  0.92382349     0.07280
N854        N  0.52579112  0.83066499  0.62486861    -0.46520
H855        H  0.47995026  0.81248979  0.88222024     0.07270
C856        C  0.54642914  0.68055077  0.87049427     0.42970
C857        C  0.46800606  0.81243052  0.54525607    -0.06050
Co858      Co  0.50206675  0.75064346  0.94844485     0.73820
N859        N  0.58922274  0.86647447  0.88250019    -0.46240
C860        C  0.55347239  0.68470325  0.63768809     0.43240
N861        N  0.46568391  0.65608994  0.97135892    -0.46230
Co862      Co  0.61362713  0.80451117  0.94048915     0.73890
C863        C  0.67255105  0.76341488  0.96020052    -0.06550
C864        C  0.59946288  0.87391582  0.61970754    -0.06120
N865        N  0.47392581  0.69550068  0.53178996    -0.25640
N866        N  0.67697453  0.90625367  0.53566245    -0.46410
H867        H  0.62848042  0.72608089  0.62291576     0.07240
C868        C  0.51136751  0.68646109  0.88742319    -0.06530
Cl869      Cl  0.56127934  0.77957373  0.50388318    -0.49530
C870        C  0.55135382  0.86517157  0.86879471     0.43000
H871        H  0.46154718  0.64515653  0.58170622     0.07210
N872        N  0.58534874  0.71640635  0.88356246    -0.46240
C873        C  0.13721230  0.45125431  0.86757324     0.42850
N874        N  0.19462976  0.46286738  0.90448048     0.01740
C875        C  0.23456520  0.32707771  0.54396158    -0.06140
H876        H  0.08689543  0.32615167  0.57934368     0.07230
C877        C  0.18318904  0.49210490  0.61802883    -0.06490
Co878      Co  0.19331015  0.38301869  0.94400694     0.74180
N879        N  0.13723937  0.35485363  0.52793189    -0.25670
Co880      Co  0.19644266  0.38868740  0.56362775     0.74070
C881        C  0.14155179  0.45729652  0.63439530     0.42950
N882        N  0.23101967  0.53113085  0.51872499     0.01360
N883        N  0.17427377  0.42874144  0.59705764     0.01460
N884        N  0.23268746  0.32435795  0.96743124    -0.46510
H885        H  0.10351315  0.37594688  0.88082443     0.07220
N886        N  0.13582614  0.35259750  0.98318667     0.01750
N887        N  0.25899407  0.42473168  0.59739802     0.01490
C888        C  0.31943380  0.44966706  0.63544509     0.43090
N889        N  0.23050446  0.53033409  0.97424612    -0.25120
C890        C  0.27873090  0.40275908  0.88356025    -0.06040
N891        N  0.17736572  0.48228982  0.88072061    -0.46230
N892        N  0.28265952  0.41176669  0.62177039    -0.46450
C893        C  0.31638076  0.44396098  0.86558077     0.42860
N894        N  0.21723850  0.34941793  0.98310884     0.01730
N895        N  0.31207045  0.52464826  0.97363600    -0.25140
N896        N  0.16931907  0.41961768  0.90708413    -0.25640
N897        N  0.31275230  0.52517680  0.51809653     0.01370
H898        H  0.36176417  0.53364759  0.92442144     0.07260
H899        H  0.33896295  0.52118535  0.62203148     0.07300
N900        N  0.21818036  0.35166695  0.52787963    -0.25690
N901        N  0.20013064  0.47182068  0.59438908    -0.25300
N902        N  0.27363621  0.45910399  0.90313657     0.01740
C903        C  0.06882580  0.31362781  0.00407427     0.43140
C904        C  0.20199915  0.54247557  0.95976713    -0.06550
N905        N  0.27920020  0.46796908  0.59453144    -0.25300
H906        H  0.19773356  0.52740909  0.62172129     0.07280
N907        N  0.09520508  0.32807118  0.96752228    -0.46520
H908        H  0.19246226  0.54375537  0.92555958     0.07270
C909        C  0.37452769  0.53230960  0.49893369     0.42970
C910        C  0.13149777  0.40886075  0.88451106    -0.06050
Co911      Co  0.25350876  0.49586246  0.93829964     0.73820
N912        N  0.20204015  0.54061744  0.53572479    -0.45820
C913        C  0.24373954  0.30903208  0.50396138     0.43240
N914        N  0.30967723  0.47653048  0.87846111    -0.46230
Co915      Co  0.25649555  0.50039505  0.55646715     0.73890
C916        C  0.31612021  0.48618821  0.61855378    -0.06550
C917        C  0.09616087  0.33110898  0.54407925    -0.06120
N918        N  0.25361861  0.41580707  0.90640641    -0.25640
N919        N  0.13775931  0.41821895  0.62075751    -0.46410
H920        H  0.23955914  0.32266900  0.57918696     0.07240
C921        C  0.35143555  0.53243518  0.95882094    -0.06530
Cl922      Cl  0.22453379  0.44146471  0.50059398    -0.49530
C923        C  0.18136409  0.54532962  0.00042491     0.43000
H924        H  0.27185100  0.36915126  0.88015704     0.07210
N925        N  0.35024323  0.53083302  0.53439085    -0.46240
C926        C  0.53793960  0.16581422  0.00474066     0.42850
N927        N  0.52932465  0.21963319  0.98629082     0.01740
C928        C  0.41017200  0.27958091  0.61991809    -0.06140
H929        H  0.37289284  0.09991628  0.62290255     0.07230
C930        C  0.33192140  0.09612467  0.95912873    -0.06490
Co931      Co  0.49854764  0.24685769  0.56655982     0.74180
N932        N  0.41918238  0.16526145  0.59713898    -0.25670
Co933      Co  0.38576447  0.19248462  0.55996168     0.74070
C934        C  0.31406951  0.06853581  0.99890089     0.42950
N935        N  0.42901459  0.17092711  0.90642772     0.01360
N936        N  0.35328134  0.13536928  0.52030495     0.01460
N937        N  0.48338456  0.30700450  0.62525820    -0.46510
H938        H  0.53912597  0.17913538  0.57950542     0.07220
N939        N  0.46244920  0.18884646  0.60043149     0.01750
N940        N  0.35476004  0.21921330  0.52099135     0.01490
C941        C  0.31517313  0.24660920  0.50019080     0.43090
N942        N  0.47219632  0.19451239  0.90942235    -0.25120
C943        C  0.54245594  0.34543531  0.54708454    -0.06040
N944        N  0.53603547  0.18863122  0.96953825    -0.46230
N945        N  0.32974789  0.23469604  0.53668976    -0.46450
C946        C  0.54342078  0.36912172  0.50722445     0.42860
N947        N  0.46438505  0.27062212  0.60105228     0.01730
N948        N  0.47413721  0.27676460  0.91046753    -0.25140
N949        N  0.52912544  0.21951995  0.53077720    -0.25640
N950        N  0.43111264  0.25875600  0.90725117     0.01370
H951        H  0.52945932  0.33544887  0.88400069     0.07260
H952        H  0.32852769  0.24208994  0.92495759     0.07300
N953        N  0.42127034  0.25265667  0.59761199    -0.25690
N954        N  0.35581156  0.13709526  0.97558664    -0.25300
N955        N  0.53169636  0.30606458  0.98718272     0.01740
C956        C  0.44765869  0.13059126  0.63735862     0.43140
C957        C  0.49067758  0.17590638  0.88547052    -0.06550
N958        N  0.35730583  0.22047091  0.97626533    -0.25300
H959        H  0.32780018  0.08699100  0.92382587     0.07280
N960        N  0.48006322  0.17017538  0.62474080    -0.46520
H961        H  0.52567439  0.18830102  0.88209049     0.07270
C962        C  0.45916045  0.32006421  0.87014941     0.42970
C963        C  0.53792010  0.18854397  0.54522231    -0.06050
Co964      Co  0.50322216  0.24993222  0.94829597     0.73820
N965        N  0.41639026  0.13421848  0.88221220    -0.46240
C966        C  0.45229603  0.31609372  0.63762880     0.43240
N967        N  0.53942165  0.34444542  0.97123552    -0.46230
Co968      Co  0.39207061  0.19625994  0.94024059     0.73890
C969        C  0.33327511  0.23749155  0.96019940    -0.06550
C970        C  0.40639592  0.12688801  0.61959280    -0.06120
N971        N  0.53175728  0.30533322  0.53169772    -0.25640
N972        N  0.32867349  0.09462193  0.53564699    -0.46410
H973        H  0.37729076  0.27473148  0.62283175     0.07240
C974        C  0.49419691  0.31414004  0.88711975    -0.06530
Cl975      Cl  0.44446301  0.22122426  0.50382526    -0.49530
C976        C  0.45430299  0.13558383  0.86855431     0.43000
H977        H  0.54405875  0.35569784  0.58156813     0.07210
N978        N  0.42021469  0.28424810  0.88320804    -0.46240
C979        C  0.28809805  0.26656272  0.50166261    -0.12880
C980        C  0.26683817  0.28492606  0.50244718    -0.14440
C981        C  0.42033679  0.55140857  0.50178511    -0.12880
C982        C  0.45095750  0.58727051  0.50505487    -0.14440
C983        C  0.29007941  0.02138231  0.00010951    -0.12880
C984        C  0.27150884  0.98176667  0.00108281    -0.14440
C985        C  0.14663721  0.55412530  0.00374623    -0.12880
C986        C  0.13881814  0.58313457  0.50422101    -0.14440
C987        C  0.41388211  0.85772233  0.99840833    -0.12880
C988        C  0.44939840  0.86233343  0.00158896    -0.14440
C989        C  0.73409778  0.01917864  0.00104505    -0.12880
C990        C  0.71549968  0.97954424  0.00009563    -0.14440
C991        C  0.02184274  0.28655913  0.00272553    -0.12880
C992        C  0.98226198  0.26515532  0.50289556    -0.14440
C993        C  0.55641166  0.13865297  0.00150800    -0.12880
C994        C  0.59197780  0.14337610  0.99840460    -0.14440
C995        C  0.98398608  0.71448332  0.00273651    -0.12880
C996        C  0.02362766  0.73584864  0.50285269    -0.14440
C997        C  0.73897923  0.71603164  0.50244134    -0.12880
C998        C  0.71773610  0.73440218  0.50167029    -0.14440
C999        C  0.85993900  0.44727294  0.50416454    -0.12880
C1000       C  0.86711816  0.41784648  0.50465229    -0.14440
C1001       C  0.55484988  0.41357051  0.50486946    -0.12880
C1002       C  0.58570588  0.44927726  0.50160113    -0.14440
loop_ 
_geom_bond_atom_site_label_1 
_geom_bond_atom_site_label_2 
_geom_bond_distance 
_geom_bond_site_symmetry_2 
_ccdc_geom_bond_type 
C1           N19   1.344       .  A
C1           C38   1.471       .  S
C1          C266   1.481       .  S
N2           N19   1.329       .  A
N2           N24   1.325       .  A
N2          Co39   2.069       .  S
C3           N28   1.345       .  A
C3           C41   1.450       .  S
C3           H48   1.082       .  S
H4           C45   1.082       .  S
C5           N29   1.344       .  A
C5            C9   1.470       .  S
C5           H34   1.082       .  S
Co6          N24   2.130       .  S
Co6          N14   2.116       .  S
Co6          N46   2.113       .  S
Co6          N22   2.134       .  S
Co6         Cl50   2.440   1_565  S
N7           C45   1.350       .  A
N7           N14   1.323       .  A
N7           Co8   2.089   1_565  S
Co8          N11   2.070       .  S
Co8          N28   2.063   1_545  S
Co8          N15   2.090       .  S
Co8         Cl50   2.492       .  S
C9           N47   1.344       .  A
C9          C213   1.481       .  S
N10          N17   1.323       .  A
N10          N40   1.325       .  A
N10         Co43   2.116       .  S
N11          N29   1.325       .  A
N11          N47   1.329       .  A
N12          C41   1.359       .  A
N12          N22   1.327       .  A
H13          C38   1.082       .  S
N14          N35   1.325       .  A
N15          N33   1.324       .  A
N15          N20   1.333       .  A
C16          N20   1.350       .  A
C16          C44   1.467       .  S
C16         C221   1.486       .  S
N17          C32   1.350       .  A
N17         Co39   2.089   1_545  S
C18          N46   1.339       .  A
C18          C21   1.467       .  S
C18          H52   1.082       .  S
C21          N42   1.350       .  A
C21         C274   1.486       .  S
N22          N28   1.323       .  A
N23          C49   1.344       .  A
N23          N25   1.323       .  A
N23         Co39   2.062   1_545  S
N24          C38   1.344       .  A
N25          N53   1.327       .  A
N25         Co43   2.134       .  S
H26          C49   1.082       .  S
H27          C44   1.082       .  S
N29         Co43   2.131       .  S
N30          N42   1.333       .  A
N30          N46   1.324       .  A
N30         Co39   2.089       .  S
C31          N35   1.355       .  A
C31          C45   1.460       .  S
C31         C369   1.484       .  S
C32          C51   1.460       .  S
C32          H36   1.082       .  S
N33          C44   1.339       .  A
N33         Co43   2.112       .  S
C37          N53   1.359       .  A
C37          C49   1.450       .  S
C37         C455   1.478       .  S
Co39        Cl50   2.492   1_565  S
N40          C51   1.355       .  A
C41         C349   1.478       .  S
Co43        Cl50   2.440       .  S
C51         C475   1.484       .  S
C54          N72   1.344       .  A
C54          C91   1.472       .  S
C54         C160   1.483       .  S
N55          N72   1.329       .  A
N55          N77   1.324       .  A
N55         Co92   2.072       .  S
C56          N81   1.350       .  A
C56          C94   1.457       .  S
C56         H101   1.082       .  S
H57          C98   1.082       .  S
C58          N82   1.345       .  A
C58          C62   1.472       .  S
C58          H87   1.082       .  S
Co59         N77   2.129       .  S
Co59         N67   2.129       .  S
Co59         N99   2.120       .  S
Co59         N75   2.120       .  S
Co59       Cl103   2.439   1_655  S
N60          C98   1.344       .  A
N60          N67   1.323       .  A
N60         Co61   2.065   1_655  S
Co61         N64   2.072       .  S
Co61         N81   2.078   1_455  S
Co61         N68   2.084       .  S
Co61       Cl103   2.492       .  S
C62         N100   1.344       .  A
C62         C372   1.483       .  S
N63          N70   1.323       .  A
N63          N93   1.326       .  A
N63         Co96   2.128       .  S
N64          N82   1.324       .  A
N64         N100   1.329       .  A
N65          C94   1.355       .  A
N65          N75   1.323       .  A
H66          C91   1.082       .  S
N67          N88   1.326       .  A
N68          N86   1.325       .  A
N68          N73   1.332       .  A
C69          N73   1.349       .  A
C69          C97   1.468       .  S
C69         C380   1.487       .  S
N70          C85   1.344       .  A
N70         Co92   2.063   1_455  S
C71          N99   1.340       .  A
C71          C74   1.468       .  S
C71         H105   1.082       .  S
C74          N95   1.349       .  A
C74         C168   1.486       .  S
N75          N81   1.323       .  A
N76         C102   1.349       .  A
N76          N78   1.323       .  A
N76         Co92   2.078   1_455  S
N77          C91   1.345       .  A
N78         N106   1.323       .  A
N78         Co96   2.119       .  S
H79         C102   1.082       .  S
H80          C97   1.082       .  S
N82         Co96   2.129       .  S
N83          N95   1.332       .  A
N83          N99   1.325       .  A
N83         Co92   2.082       .  S
C84          N88   1.358       .  A
C84          C98   1.449       .  S
C84         C233   1.475       .  S
C85         C104   1.449       .  S
C85          H89   1.082       .  S
N86          C97   1.340       .  A
N86         Co96   2.120       .  S
C90         N106   1.355       .  A
C90         C102   1.457       .  S
C90         C281   1.479       .  S
Co92       Cl103   2.492   1_655  S
N93         C104   1.358       .  A
C94         C228   1.480       .  S
Co96       Cl103   2.439       .  S
C104        C286   1.474       .  S
C107        N125   1.348       .  A
C107        C144   1.466       .  S
C107        C461   1.481       .  S
N108        N125   1.331       .  A
N108        N130   1.324       .  A
N108       Co145   2.081       .  S
C109        N134   1.349       .  A
C109        C147   1.456       .  S
C109        H154   1.082       .  S
H110        C151   1.082       .  S
C111        N135   1.338       .  A
C111        C115   1.466       .  S
C111        H140   1.081       .  S
Co112       N130   2.110       .  S
Co112       N120   2.133       .  S
Co112       N152   2.131       .  S
Co112       N128   2.117       .  S
Co112      Cl156   2.436       .  S
N113        C151   1.345       .  A
N113        N120   1.322       .  A
N113       Co114   2.060       .  S
Co114       N117   2.081       .  S
Co114       N134   2.077       .  S
Co114       N121   2.061       .  S
Co114      Cl156   2.489       .  S
C115        N153   1.348       .  A
C115        C355   1.481       .  S
N116        N123   1.322       .  A
N116        N146   1.327       .  A
N116       Co149   2.132       .  S
N117        N135   1.324       .  A
N117        N153   1.331       .  A
N118        C147   1.356       .  A
N118        N128   1.323       .  A
H119        C144   1.081       .  S
N120        N141   1.327       .  A
N121        N139   1.325       .  A
N121        N126   1.328       .  A
C122        N126   1.342       .  A
C122        C150   1.472       .  S
C122        C359   1.478       .  S
N123        C138   1.344       .  A
N123       Co145   2.059       .  S
C124        N152   1.344       .  A
C124        C127   1.472       .  S
C124        H158   1.082       .  S
C127        N148   1.342       .  A
C127        C465   1.477       .  S
N128        N134   1.323       .  A
N129        C155   1.349       .  A
N129        N131   1.323       .  A
N129       Co145   2.077       .  S
N130        C144   1.338       .  A
N131        N159   1.323       .  A
N131       Co149   2.117       .  S
H132        C155   1.082       .  S
H133        C150   1.082       .  S
N135       Co149   2.111       .  S
N136        N148   1.328       .  A
N136        N152   1.325       .  A
N136       Co145   2.060       .  S
C137        N141   1.359       .  A
C137        C151   1.450       .  S
C137        C180   1.477       .  S
C138        C157   1.449       .  S
C138        H142   1.082       .  S
N139        C150   1.344       .  A
N139       Co149   2.131       .  S
C143        N159   1.356       .  A
C143        C155   1.456       .  S
C143        C387   1.478       .  S
Co145      Cl156   2.489       .  S
N146        C157   1.359       .  A
C147        C175   1.478       .  S
Co149      Cl156   2.436       .  S
C157        C392   1.476       .  S
C160        N178   1.334       .  A
C160        C197   1.483       .  S
N161        N178   1.318       .  A
N161        N183   1.319       .  A
N161       Co198   2.051       .  S
C162        N187   1.340       .  A
C162        C200   1.452       .  S
C162        H207   1.081       .  S
H163        C204   1.081       .  S
C164        N188   1.331       .  A
C164        C168   1.438       .  S
C164        H193   1.081       .  S
Co165       N183   2.151       .  S
Co165       N173   2.096       .  S
Co165       N205   2.144       .  S
Co165       N181   2.102       .  S
Co165      Cl710   2.439       .  S
N166        C204   1.340       .  A
N166        N674   1.327   1_554  A
N166       Co167   2.090       .  S
Co167       N170   2.156       .  S
Co167       N187   2.091       .  S
Co167       N174   2.152       .  S
Co167      Cl209   2.459       .  S
C168        N206   1.369       .  A
N169        N199   1.318       .  A
N169        N677   1.317   1_554  A
N169       Co202   2.043       .  S
N170        N188   1.317       .  A
N170        N206   1.340       .  A
N171        C701   1.348       .  A
N171        N181   1.326       .  A
H172        C197   1.082       .  S
N173        N194   1.325       .  A
N173        N667   1.327       .  A
N174        N192   1.315       .  A
N174        N179   1.339       .  A
C175        N179   1.369       .  A
C175        C203   1.432       .  S
N176        C191   1.338       .  A
N176        N670   1.317       .  A
N176       Co198   2.055       .  S
C177        N205   1.359       .  A
C177        C180   1.483       .  S
C177        H211   1.082       .  S
C180        N201   1.331       .  A
N181        N688   1.327       .  A
N182        C208   1.340       .  A
N182        N685   1.316       .  A
N182       Co198   2.062       .  S
N183        C197   1.359       .  A
N184        N212   1.319       .  A
N184        N683   1.316   1_554  A
N184       Co202   2.053       .  S
H185        C208   1.075       .  S
H186        C203   1.082       .  S
N187        N682   1.327   1_554  A
N188       Co202   2.045       .  S
N189        N201   1.316       .  A
N189        N205   1.318       .  A
N189       Co198   2.039       .  S
C190        N194   1.347       .  A
C190        C705   1.452       .  S
C190        C494   1.432       .  S
C191        C210   1.434       .  S
C191        H195   1.074       .  S
N192        C203   1.327       .  A
N192       Co202   2.026       .  S
C196        N212   1.336   1_556  A
C196        C709   1.439       .  S
C196        C501   1.399   1_556  S
Co198      Cl710   2.476       .  S
N199        C711   1.330       .  A
C200        N672   1.348   1_554  A
C200        C496   1.434       .  S
Co202      Cl209   2.436       .  S
C204        C691   1.452       .  S
C208        C697   1.439       .  S
Cl209      Co666   2.439   1_554  S
Cl209      Co699   2.476   1_554  S
C210        N700   1.330       .  A
C210        C999   1.402       .  S
C213        N231   1.334       .  A
C213        C250   1.481       .  S
N214        N231   1.318       .  A
N214        N236   1.319       .  A
N214       Co251   2.053       .  S
C215        N240   1.340       .  A
C215        C253   1.453       .  S
C215        H260   1.081       .  S
H216        C257   1.081       .  S
C217        N241   1.330       .  A
C217        C221   1.438       .  S
C217        H246   1.081       .  S
Co218       N236   2.145       .  S
Co218       N226   2.096       .  S
Co218       N258   2.145       .  S
Co218       N234   2.094       .  S
Co218      Cl763   2.437       .  S
N219        C257   1.339       .  A
N219        N727   1.326   1_554  A
N219       Co220   2.088       .  S
Co220       N223   2.156       .  S
Co220       N240   2.092       .  S
Co220       N227   2.150       .  S
Co220      Cl262   2.459       .  S
C221        N259   1.369       .  A
N222        N252   1.318       .  A
N222        N730   1.317   1_554  A
N222       Co255   2.048       .  S
N223        N241   1.316       .  A
N223        N259   1.340       .  A
N224        C754   1.346       .  A
N224        N234   1.324       .  A
H225        C250   1.081       .  S
N226        N247   1.325       .  A
N226        N720   1.326       .  A
N227        N245   1.315       .  A
N227        N232   1.339       .  A
C228        N232   1.368       .  A
C228        C256   1.434       .  S
N229        C244   1.338       .  A
N229        N723   1.317       .  A
N229       Co251   2.051       .  S
C230        N258   1.359       .  A
C230        C233   1.483       .  S
C230        H264   1.082       .  S
C233        N254   1.331       .  A
N234        N741   1.327       .  A
N235        C261   1.339       .  A
N235        N738   1.316       .  A
N235       Co251   2.060       .  S
N236        C250   1.358       .  A
N237        N265   1.319       .  A
N237        N736   1.316   1_554  A
N237       Co255   2.054       .  S
H238        C261   1.075       .  S
H239        C256   1.082       .  S
N240        N735   1.327   1_554  A
N241       Co255   2.042       .  S
N242        N254   1.315       .  A
N242        N258   1.317       .  A
N242       Co251   2.034       .  S
C243        N247   1.347       .  A
C243        C758   1.451       .  S
C243        C488   1.431       .  S
C244        C263   1.432       .  S
C244        H248   1.074       .  S
N245        C256   1.328       .  A
N245       Co255   2.033       .  S
C249        N265   1.336       .  A
C249        C762   1.440   1_554  S
C249        C499   1.398       .  S
Co251      Cl763   2.476       .  S
N252        C764   1.333   1_554  A
C253        N725   1.346   1_554  A
C253        C491   1.431       .  S
Co255      Cl262   2.434       .  S
C257        C744   1.451       .  S
C261        C750   1.440       .  S
Cl262      Co719   2.437   1_554  S
Cl262      Co752   2.476   1_554  S
C263        N753   1.333       .  A
C263        C493   1.400       .  S
C266        N284   1.334       .  A
C266        C303   1.481       .  S
N267        N284   1.317       .  A
N267        N289   1.319       .  A
N267       Co304   2.052       .  S
C268        N293   1.340       .  A
C268        C306   1.453       .  S
C268        H313   1.081       .  S
H269        C310   1.081       .  S
C270        N294   1.330       .  A
C270        C274   1.438       .  S
C270        H299   1.081       .  S
Co271       N289   2.145       .  S
Co271       N279   2.095       .  S
Co271       N311   2.144       .  S
Co271       N287   2.095       .  S
Co271      Cl816   2.437       .  S
N272        C310   1.339       .  A
N272        N780   1.326   1_554  A
N272       Co273   2.087       .  S
Co273       N276   2.156       .  S
Co273       N293   2.093       .  S
Co273       N280   2.149       .  S
Co273      Cl315   2.459       .  S
C274        N312   1.369       .  A
N275        N305   1.318       .  A
N275        N783   1.317   1_554  A
N275       Co308   2.048       .  S
N276        N294   1.316       .  A
N276        N312   1.340       .  A
N277        C807   1.346       .  A
N277        N287   1.324       .  A
H278        C303   1.081       .  S
N279        N300   1.324       .  A
N279        N773   1.326       .  A
N280        N298   1.315       .  A
N280        N285   1.339       .  A
C281        N285   1.368       .  A
C281        C309   1.434       .  S
N282        C297   1.338       .  A
N282        N776   1.317       .  A
N282       Co304   2.051       .  S
C283        N311   1.359       .  A
C283        C286   1.483       .  S
C283        H317   1.082       .  S
C286        N307   1.331       .  A
N287        N794   1.327       .  A
N288        C314   1.339       .  A
N288        N791   1.316       .  A
N288       Co304   2.060       .  S
N289        C303   1.358       .  A
N290        N318   1.319       .  A
N290        N789   1.316   1_554  A
N290       Co308   2.054       .  S
H291        C314   1.075       .  S
H292        C309   1.082       .  S
N293        N788   1.327   1_554  A
N294       Co308   2.042       .  S
N295        N307   1.315       .  A
N295        N311   1.317       .  A
N295       Co304   2.033       .  S
C296        N300   1.346       .  A
C296        C811   1.451       .  S
C296        C483   1.430       .  S
C297        C316   1.432       .  S
C297        H301   1.074       .  S
N298        C309   1.328       .  A
N298       Co308   2.033       .  S
C302        N318   1.336       .  A
C302        C815   1.441   1_554  S
C302        C485   1.398       .  S
Co304      Cl816   2.476       .  S
N305        C817   1.333   1_554  A
C306        N778   1.346   1_554  A
C306        C495   1.432       .  S
Co308      Cl315   2.433       .  S
C310        C797   1.451       .  S
C314        C803   1.441       .  S
Cl315      Co772   2.437   1_554  S
Cl315      Co805   2.476   1_554  S
C316        N806   1.332       .  A
C316        C486   1.400       .  S
C319        N337   1.335       .  A
C319        C857   1.438       .  S
C319        C487   1.398       .  S
N320        N337   1.318       .  A
N320        N843   1.316       .  A
N320       Co357   2.051       .  S
C321        N346   1.359       .  A
C321        C359   1.483       .  S
C321        H366   1.082       .  S
H322        C363   1.082       .  S
C323        N347   1.339       .  A
C323        C327   1.451       .  S
C323        H352   1.081       .  S
Co324       N342   2.055       .  S
Co324       N332   2.040       .  S
Co324       N364   2.056       .  S
Co324       N340   2.043       .  S
Co324      Cl368   2.479       .  S
N325        C363   1.359       .  A
N325        N332   1.318       .  A
N325       Co326   2.148       .  S
Co326       N329   2.097       .  S
Co326       N346   2.147       .  S
Co326       N333   2.100       .  S
Co326      Cl368   2.436       .  S
C327        N866   1.347       .  A
C327        C489   1.431       .  S
N328        N335   1.316       .  A
N328        N358   1.339       .  A
N328       Co361   2.151       .  S
N329        N365   1.325       .  A
N329        N848   1.326   1_554  A
N330        C359   1.332       .  A
N330        N340   1.316       .  A
H331        C356   1.074       .  S
N332        N353   1.316       .  A
N333        N338   1.326       .  A
N333        N852   1.327   1_554  A
C334        N338   1.348       .  A
C334        C863   1.452   1_554  S
C334        C497   1.434       .  S
N335        C350   1.331       .  A
N335       Co357   2.042       .  S
C336        N364   1.339       .  A
C336        C339   1.433       .  S
C336        H370   1.074       .  S
C339        N861   1.333   1_554  A
C339        C481   1.402       .  S
N340        N346   1.319       .  A
N341        C367   1.328       .  A
N341        N343   1.316       .  A
N341       Co357   2.037       .  S
N342        C356   1.339       .  A
N342        N821   1.316   1_554  A
N343        N371   1.339       .  A
N343       Co361   2.151       .  S
H344        C367   1.081       .  S
H345        C362   1.081       .  S
N347        N830   1.326       .  A
N347       Co361   2.088       .  S
N348        N360   1.319       .  A
N348        N865   1.317       .  A
N348       Co357   2.054       .  S
C349        N353   1.332       .  A
C349        C363   1.483       .  S
C350        C369   1.438       .  S
C350        H354   1.082       .  S
N351        C362   1.340       .  A
N351        N834   1.327       .  A
N351       Co361   2.090       .  S
C355        N371   1.368       .  A
C355        C367   1.436       .  S
C356        C820   1.438       .  S
Co357      Cl869   2.433       .  S
N358        C369   1.367       .  A
N360        C840   1.333       .  A
Co361      Cl869   2.460       .  S
C362        C835   1.452       .  S
N364        N849   1.317   1_554  A
N365        C828   1.347   1_554  A
Cl368      Co858   2.433   1_554  S
Cl368      Co862   2.460   1_554  S
C372        N390   1.335       .  A
C372        C409   1.483       .  S
N373        N390   1.318       .  A
N373        N395   1.320       .  A
N373       Co410   2.051       .  S
C374        N399   1.340       .  A
C374        C412   1.452       .  S
C374        H419   1.081       .  S
H375        C416   1.081       .  S
C376        N400   1.331       .  A
C376        C380   1.438       .  S
C376        H405   1.081       .  S
Co377       N395   2.152       .  S
Co377       N385   2.095       .  S
Co377       N417   2.144       .  S
Co377       N393   2.103       .  S
Co377      Cl922   2.439       .  S
N378        C416   1.340       .  A
N378        N886   1.326   1_554  A
N378       Co379   2.089       .  S
Co379       N382   2.156       .  S
Co379       N399   2.092       .  S
Co379       N386   2.152       .  S
Co379      Cl421   2.459       .  S
C380        N418   1.369       .  A
N381        N411   1.317       .  A
N381        N889   1.317   1_554  A
N381       Co414   2.042       .  S
N382        N400   1.317       .  A
N382        N418   1.340       .  A
N383        C913   1.348       .  A
N383        N393   1.326       .  A
H384        C409   1.082       .  S
N385        N406   1.325       .  A
N385        N879   1.326       .  A
N386        N404   1.314       .  A
N386        N391   1.339       .  A
C387        N391   1.369       .  A
C387        C415   1.432       .  S
N388        C403   1.338       .  A
N388        N882   1.317       .  A
N388       Co410   2.054       .  S
C389        N417   1.359       .  A
C389        C392   1.483       .  S
C389        H423   1.082       .  S
C392        N413   1.331       .  A
N393        N900   1.327       .  A
N394        C420   1.340       .  A
N394        N897   1.316       .  A
N394       Co410   2.062       .  S
N395        C409   1.359       .  A
N396        N424   1.319       .  A
N396        N895   1.316   1_554  A
N396       Co414   2.054       .  S
H397        C420   1.075       .  S
H398        C415   1.082       .  S
N399        N894   1.327   1_554  A
N400       Co414   2.046       .  S
N401        N413   1.315       .  A
N401        N417   1.317       .  A
N401       Co410   2.038       .  S
C402        N406   1.347       .  A
C402        C917   1.452       .  S
C402        C490   1.431       .  S
C403        C422   1.434       .  S
C403        H407   1.074       .  S
N404        C415   1.327       .  A
N404       Co414   2.025       .  S
C408        N424   1.336   1_556  A
C408        C921   1.440       .  S
C408        C480   1.399   1_556  S
Co410      Cl922   2.475       .  S
N411        C923   1.330       .  A
C412        N884   1.348   1_554  A
C412        C479   1.435       .  S
Co414      Cl421   2.436       .  S
C416        C903   1.452       .  S
C420        C909   1.440       .  S
Cl421      Co878   2.439   1_554  S
Cl421      Co911   2.475   1_554  S
C422        N912   1.330       .  A
C422        C484   1.402       .  S
C425        N443   1.335       .  A
C425        C963   1.438       .  S
C425        C492   1.398       .  S
N426        N443   1.318       .  A
N426        N949   1.316       .  A
N426       Co463   2.050       .  S
C427        N452   1.358       .  A
C427        C465   1.483       .  S
C427        H472   1.082       .  S
H428        C469   1.082       .  S
C429        N453   1.339       .  A
C429        C433   1.451       .  S
C429        H458   1.081       .  S
Co430       N448   2.055       .  S
Co430       N438   2.038       .  S
Co430       N470   2.056       .  S
Co430       N446   2.042       .  S
Co430      Cl474   2.482       .  S
N431        C469   1.359       .  A
N431        N438   1.318       .  A
N431       Co432   2.147       .  S
Co432       N435   2.098       .  S
Co432       N452   2.145       .  S
Co432       N439   2.103       .  S
Co432      Cl474   2.430       .  S
C433        N972   1.347       .  A
C433        C482   1.430       .  S
N434        N441   1.316       .  A
N434        N464   1.339       .  A
N434       Co467   2.152       .  S
N435        N471   1.324       .  A
N435        N954   1.327   1_554  A
N436        C465   1.331       .  A
N436        N446   1.315       .  A
H437        C462   1.074       .  S
N438        N459   1.316       .  A
N439        N444   1.326       .  A
N439        N958   1.328   1_554  A
C440        N444   1.348       .  A
C440        C969   1.452   1_554  S
C440        C478   1.435       .  S
N441        C456   1.331       .  A
N441       Co463   2.041       .  S
C442        N470   1.339       .  A
C442        C445   1.433       .  S
C442        H476   1.074       .  S
C445        N967   1.333   1_554  A
C445        C500   1.402       .  S
N446        N452   1.318       .  A
N447        C473   1.328       .  A
N447        N449   1.316       .  A
N447       Co463   2.036       .  S
N448        C462   1.339       .  A
N448        N927   1.316   1_554  A
N449        N477   1.339       .  A
N449       Co467   2.150       .  S
H450        C473   1.081       .  S
H451        C468   1.081       .  S
N453        N936   1.326       .  A
N453       Co467   2.087       .  S
N454        N466   1.319       .  A
N454        N971   1.317       .  A
N454       Co463   2.054       .  S
C455        N459   1.332       .  A
C455        C469   1.483       .  S
C456        C475   1.438       .  S
C456        H460   1.082       .  S
N457        C468   1.340       .  A
N457        N940   1.327       .  A
N457       Co467   2.091       .  S
C461        N477   1.368       .  A
C461        C473   1.436       .  S
C462        C926   1.438       .  S
Co463      Cl975   2.433       .  S
N464        C475   1.368       .  A
N466        C946   1.333       .  A
Co467      Cl975   2.460       .  S
C468        C941   1.452       .  S
N470        N955   1.318   1_554  A
N471        C934   1.347   1_554  A
Cl474      Co964   2.439   1_554  S
Cl474      Co968   2.456   1_554  S
C478        C479   1.205       .  T
C480        C481   1.178       .  T
C482        C483   1.202   1_545  T
C484        C986   1.178       .  T
C485        C985   1.178       .  T
C486        C487   1.177       .  T
C488        C489   1.203   1_545  T
C490        C992   1.203   1_455  T
C491        C991   1.203   1_655  T
C492        C493   1.177       .  T
C494        C996   1.203   1_655  T
C495        C995   1.203   1_455  T
C496        C497   1.205       .  T
C498        C711   1.402       .  S
C498        C499   1.178       .  T
C500        C501   1.178       .  T
C502        N520   1.344       .  A
C502        C539   1.471       .  S
C502        C767   1.481       .  S
N503        N520   1.329       .  A
N503        N525   1.325       .  A
N503       Co540   2.069       .  S
C504        N529   1.345       .  A
C504        C542   1.450       .  S
C504        H549   1.082       .  S
H505        C546   1.082       .  S
C506        N530   1.344       .  A
C506        C510   1.470       .  S
C506        H535   1.082       .  S
Co507       N525   2.130       .  S
Co507       N515   2.116       .  S
Co507       N547   2.112       .  S
Co507       N523   2.133       .  S
Co507      Cl551   2.440   1_565  S
N508        C546   1.350       .  A
N508        N515   1.323       .  A
N508       Co509   2.090   1_565  S
Co509       N512   2.070       .  S
Co509       N529   2.063   1_545  S
Co509       N516   2.090       .  S
Co509      Cl551   2.492       .  S
C510        N548   1.344       .  A
C510        C714   1.481       .  S
N511        N518   1.323       .  A
N511        N541   1.325       .  A
N511       Co544   2.116       .  S
N512        N530   1.325       .  A
N512        N548   1.329       .  A
N513        C542   1.359       .  A
N513        N523   1.327       .  A
H514        C539   1.082       .  S
N515        N536   1.325       .  A
N516        N534   1.324       .  A
N516        N521   1.333       .  A
C517        N521   1.350       .  A
C517        C545   1.467       .  S
C517        C722   1.486       .  S
N518        C533   1.350       .  A
N518       Co540   2.089   1_545  S
C519        N547   1.339       .  A
C519        C522   1.467       .  S
C519        H553   1.082       .  S
C522        N543   1.350       .  A
C522        C775   1.486       .  S
N523        N529   1.323       .  A
N524        C550   1.345       .  A
N524        N526   1.323       .  A
N524       Co540   2.063   1_545  S
N525        C539   1.344       .  A
N526        N554   1.327       .  A
N526       Co544   2.134       .  S
H527        C550   1.082       .  S
H528        C545   1.082       .  S
N530       Co544   2.131       .  S
N531        N543   1.333       .  A
N531        N547   1.324       .  A
N531       Co540   2.089       .  S
C532        N536   1.355       .  A
C532        C546   1.460       .  S
C532        C870   1.484       .  S
C533        C552   1.459       .  S
C533        H537   1.082       .  S
N534        C545   1.339       .  A
N534       Co544   2.112       .  S
C538        N554   1.359       .  A
C538        C550   1.450       .  S
C538        C956   1.478       .  S
Co540      Cl551   2.492   1_565  S
N541        C552   1.355       .  A
C542        C850   1.478       .  S
Co544      Cl551   2.440       .  S
C552        C976   1.483       .  S
C555        N573   1.344       .  A
C555        C592   1.472       .  S
C555        C661   1.483       .  S
N556        N573   1.329       .  A
N556        N578   1.324       .  A
N556       Co593   2.072       .  S
C557        N582   1.350       .  A
C557        C595   1.457       .  S
C557        H602   1.082       .  S
H558        C599   1.082       .  S
C559        N583   1.345       .  A
C559        C563   1.472       .  S
C559        H588   1.082       .  S
Co560       N578   2.129       .  S
Co560       N568   2.129       .  S
Co560       N600   2.120       .  S
Co560       N576   2.120       .  S
Co560      Cl604   2.439   1_655  S
N561        C599   1.345       .  A
N561        N568   1.323       .  A
N561       Co562   2.065   1_655  S
Co562       N565   2.072       .  S
Co562       N582   2.078   1_455  S
Co562       N569   2.083       .  S
Co562      Cl604   2.492       .  S
C563        N601   1.344       .  A
C563        C873   1.484       .  S
N564        N571   1.323       .  A
N564        N594   1.326       .  A
N564       Co597   2.128       .  S
N565        N583   1.324       .  A
N565        N601   1.329       .  A
N566        C595   1.355       .  A
N566        N576   1.323       .  A
H567        C592   1.082       .  S
N568        N589   1.326       .  A
N569        N587   1.324       .  A
N569        N574   1.332       .  A
C570        N574   1.349       .  A
C570        C598   1.468       .  S
C570        C881   1.487       .  S
N571        C586   1.344       .  A
N571       Co593   2.064   1_455  S
C572        N600   1.340       .  A
C572        C575   1.468       .  S
C572        H606   1.082       .  S
C575        N596   1.349       .  A
C575        C669   1.486       .  S
N576        N582   1.323       .  A
N577        C603   1.349       .  A
N577        N579   1.323       .  A
N577       Co593   2.078   1_455  S
N578        C592   1.345       .  A
N579        N607   1.323       .  A
N579       Co597   2.119       .  S
H580        C603   1.082       .  S
H581        C598   1.082       .  S
N583       Co597   2.129       .  S
N584        N596   1.332       .  A
N584        N600   1.325       .  A
N584       Co593   2.082       .  S
C585        N589   1.358       .  A
C585        C599   1.449       .  S
C585        C734   1.475       .  S
C586        C605   1.449       .  S
C586        H590   1.082       .  S
N587        C598   1.340       .  A
N587       Co597   2.120       .  S
C591        N607   1.355       .  A
C591        C603   1.457       .  S
C591        C782   1.479       .  S
Co593      Cl604   2.492   1_655  S
N594        C605   1.358       .  A
C595        C729   1.480       .  S
Co597      Cl604   2.439       .  S
C605        C787   1.474       .  S
C608        N626   1.348       .  A
C608        C645   1.466       .  S
C608        C962   1.481       .  S
N609        N626   1.331       .  A
N609        N631   1.324       .  A
N609       Co646   2.080       .  S
C610        N635   1.349       .  A
C610        C648   1.456       .  S
C610        H655   1.082       .  S
H611        C652   1.082       .  S
C612        N636   1.338       .  A
C612        C616   1.466       .  S
C612        H641   1.081       .  S
Co613       N631   2.110       .  S
Co613       N621   2.133       .  S
Co613       N653   2.131       .  S
Co613       N629   2.117       .  S
Co613      Cl657   2.436       .  S
N614        C652   1.345       .  A
N614        N621   1.322       .  A
N614       Co615   2.060       .  S
Co615       N618   2.081       .  S
Co615       N635   2.077       .  S
Co615       N622   2.060       .  S
Co615      Cl657   2.489       .  S
C616        N654   1.348       .  A
C616        C856   1.481       .  S
N617        N624   1.322       .  A
N617        N647   1.327       .  A
N617       Co650   2.133       .  S
N618        N636   1.324       .  A
N618        N654   1.332       .  A
N619        C648   1.356       .  A
N619        N629   1.323       .  A
H620        C645   1.081       .  S
N621        N642   1.327       .  A
N622        N640   1.325       .  A
N622        N627   1.328       .  A
C623        N627   1.342       .  A
C623        C651   1.472       .  S
C623        C860   1.478       .  S
N624        C639   1.345       .  A
N624       Co646   2.059       .  S
C625        N653   1.344       .  A
C625        C628   1.472       .  S
C625        H659   1.082       .  S
C628        N649   1.342       .  A
C628        C966   1.478       .  S
N629        N635   1.323       .  A
N630        C656   1.349       .  A
N630        N632   1.323       .  A
N630       Co646   2.077       .  S
N631        C645   1.338       .  A
N632        N660   1.323       .  A
N632       Co650   2.117       .  S
H633        C656   1.082       .  S
H634        C651   1.082       .  S
N636       Co650   2.111       .  S
N637        N649   1.328       .  A
N637        N653   1.325       .  A
N637       Co646   2.060       .  S
C638        N642   1.359       .  A
C638        C652   1.450       .  S
C638        C681   1.477       .  S
C639        C658   1.450       .  S
C639        H643   1.082       .  S
N640        C651   1.344       .  A
N640       Co650   2.131       .  S
C644        N660   1.356       .  A
C644        C656   1.456       .  S
C644        C888   1.478       .  S
Co646      Cl657   2.489       .  S
N647        C658   1.359       .  A
C648        C676   1.478       .  S
Co650      Cl657   2.436       .  S
C658        C893   1.477       .  S
C661        N679   1.334       .  A
C661        C698   1.483       .  S
N662        N679   1.318       .  A
N662        N684   1.319       .  A
N662       Co699   2.051       .  S
C663        N688   1.340       .  A
C663        C701   1.452       .  S
C663        H708   1.081       .  S
H664        C705   1.081       .  S
C665        N689   1.331       .  A
C665        C669   1.438       .  S
C665        H694   1.081       .  S
Co666       N684   2.151       .  S
Co666       N674   2.096       .  S
Co666       N706   2.144       .  S
Co666       N682   2.102       .  S
N667        C705   1.340       .  A
N667       Co668   2.090       .  S
Co668       N671   2.156       .  S
Co668       N688   2.091       .  S
Co668       N675   2.152       .  S
Co668      Cl710   2.459       .  S
C669        N707   1.369       .  A
N670        N700   1.318       .  A
N670       Co703   2.043       .  S
N671        N689   1.317       .  A
N671        N707   1.340       .  A
N672        N682   1.326       .  A
H673        C698   1.082       .  S
N674        N695   1.325       .  A
N675        N693   1.315       .  A
N675        N680   1.339       .  A
C676        N680   1.369       .  A
C676        C704   1.432       .  S
N677        C692   1.338       .  A
N677       Co699   2.055       .  S
C678        N706   1.359       .  A
C678        C681   1.483       .  S
C678        H712   1.082       .  S
C681        N702   1.332       .  A
N683        C709   1.340       .  A
N683       Co699   2.061       .  S
N684        C698   1.359       .  A
N685        N713   1.319       .  A
N685       Co703   2.053       .  S
H686        C709   1.075       .  S
H687        C704   1.082       .  S
N689       Co703   2.045       .  S
N690        N702   1.316       .  A
N690        N706   1.318       .  A
N690       Co699   2.039       .  S
C691        N695   1.347   1_554  A
C691        C995   1.432       .  S
C692        C711   1.434   1_556  S
C692        H696   1.074       .  S
N693        C704   1.327       .  A
N693       Co703   2.026       .  S
C697        N713   1.336       .  A
C697       C1002   1.399       .  S
C701        C997   1.434       .  S
Co703      Cl710   2.436       .  S
C714        N732   1.334       .  A
C714        C751   1.481       .  S
N715        N732   1.318       .  A
N715        N737   1.319       .  A
N715       Co752   2.053       .  S
C716        N741   1.340       .  A
C716        C754   1.453       .  S
C716        H761   1.081       .  S
H717        C758   1.081       .  S
C718        N742   1.330       .  A
C718        C722   1.438       .  S
C718        H747   1.081       .  S
Co719       N737   2.145       .  S
Co719       N727   2.096       .  S
Co719       N759   2.145       .  S
Co719       N735   2.094       .  S
N720        C758   1.339       .  A
N720       Co721   2.088       .  S
Co721       N724   2.156       .  S
Co721       N741   2.092       .  S
Co721       N728   2.150       .  S
Co721      Cl763   2.459       .  S
C722        N760   1.369       .  A
N723        N753   1.318       .  A
N723       Co756   2.048       .  S
N724        N742   1.316       .  A
N724        N760   1.340       .  A
N725        N735   1.324       .  A
H726        C751   1.081       .  S
N727        N748   1.325       .  A
N728        N746   1.315       .  A
N728        N733   1.339       .  A
C729        N733   1.368       .  A
C729        C757   1.434       .  S
N730        C745   1.338       .  A
N730       Co752   2.051       .  S
C731        N759   1.359       .  A
C731        C734   1.483       .  S
C731        H765   1.082       .  S
C734        N755   1.331       .  A
N736        C762   1.339       .  A
N736       Co752   2.060       .  S
N737        C751   1.358       .  A
N738        N766   1.319       .  A
N738       Co756   2.054       .  S
H739        C762   1.075       .  S
H740        C757   1.082       .  S
N742       Co756   2.042       .  S
N743        N755   1.315       .  A
N743        N759   1.317       .  A
N743       Co752   2.034       .  S
C744        N748   1.347   1_554  A
C744        C989   1.431       .  S
C745        C764   1.432       .  S
C745        H749   1.074       .  S
N746        C757   1.328       .  A
N746       Co756   2.033       .  S
C750        N766   1.336       .  A
C750       C1000   1.398       .  S
C754        C992   1.431       .  S
Co756      Cl763   2.434       .  S
C764        C994   1.400       .  S
C767        N785   1.334       .  A
C767        C804   1.481       .  S
N768        N785   1.317       .  A
N768        N790   1.319       .  A
N768       Co805   2.052       .  S
C769        N794   1.340       .  A
C769        C807   1.453       .  S
C769        H814   1.081       .  S
H770        C811   1.081       .  S
C771        N795   1.330       .  A
C771        C775   1.438       .  S
C771        H800   1.081       .  S
Co772       N790   2.145       .  S
Co772       N780   2.095       .  S
Co772       N812   2.144       .  S
Co772       N788   2.095       .  S
N773        C811   1.339       .  A
N773       Co774   2.087       .  S
Co774       N777   2.156       .  S
Co774       N794   2.092       .  S
Co774       N781   2.149       .  S
Co774      Cl816   2.459       .  S
C775        N813   1.369       .  A
N776        N806   1.318       .  A
N776       Co809   2.048       .  S
N777        N795   1.316       .  A
N777        N813   1.340       .  A
N778        N788   1.325       .  A
H779        C804   1.081       .  S
N780        N801   1.324       .  A
N781        N799   1.315       .  A
N781        N786   1.339       .  A
C782        N786   1.368       .  A
C782        C810   1.434       .  S
N783        C798   1.338       .  A
N783       Co805   2.051       .  S
C784        N812   1.359       .  A
C784        C787   1.483       .  S
C784        H818   1.082       .  S
C787        N808   1.331       .  A
N789        C815   1.339       .  A
N789       Co805   2.060       .  S
N790        C804   1.358       .  A
N791        N819   1.319       .  A
N791       Co809   2.054       .  S
H792        C815   1.075       .  S
H793        C810   1.082       .  S
N795       Co809   2.042       .  S
N796        N808   1.315       .  A
N796        N812   1.317       .  A
N796       Co805   2.033       .  S
C797        N801   1.346   1_554  A
C797        C984   1.430       .  S
C798        C817   1.432       .  S
C798        H802   1.074       .  S
N799        C810   1.328       .  A
N799       Co809   2.033       .  S
C803        N819   1.336       .  A
C803        C986   1.398       .  S
C807        C996   1.432       .  S
Co809      Cl816   2.433       .  S
C817        C987   1.400       .  S
C820        N838   1.335   1_554  A
C820        C988   1.398       .  S
N821        N838   1.318       .  A
N821       Co858   2.051       .  S
C822        N847   1.359       .  A
C822        C860   1.483       .  S
C822        H867   1.082       .  S
H823        C864   1.082       .  S
C824        N848   1.339       .  A
C824        C828   1.451       .  S
C824        H853   1.081       .  S
Co825       N843   2.055       .  S
Co825       N833   2.040       .  S
Co825       N865   2.056       .  S
Co825       N841   2.043       .  S
Co825      Cl869   2.479       .  S
N826        C864   1.359       .  A
N826        N833   1.318       .  A
N826       Co827   2.148       .  S
Co827       N830   2.097       .  S
Co827       N847   2.147       .  S
Co827       N834   2.100       .  S
Co827      Cl869   2.436       .  S
C828        C990   1.431   1_556  S
N829        N836   1.316       .  A
N829        N859   1.339       .  A
N829       Co862   2.151       .  S
N830        N866   1.325       .  A
N831        C860   1.332       .  A
N831        N841   1.316       .  A
H832        C857   1.074       .  S
N833        N854   1.316       .  A
N834        N839   1.326       .  A
C835        N839   1.348       .  A
C835        C998   1.434       .  S
N836        C851   1.331       .  A
N836       Co858   2.042       .  S
C837        N865   1.339       .  A
C837        C840   1.433       .  S
C837        H871   1.074       .  S
C840        C982   1.402       .  S
N841        N847   1.319       .  A
N842        C868   1.328       .  A
N842        N844   1.316       .  A
N842       Co858   2.037       .  S
N843        C857   1.339       .  A
N844        N872   1.339       .  A
N844       Co862   2.151       .  S
H845        C868   1.081       .  S
H846        C863   1.081       .  S
N848       Co862   2.088       .  S
N849        N861   1.319       .  A
N849       Co858   2.054       .  S
C850        N854   1.332       .  A
C850        C864   1.483       .  S
C851        C870   1.438       .  S
C851        H855   1.082       .  S
N852        C863   1.340       .  A
N852       Co862   2.090       .  S
C856        N872   1.368       .  A
C856        C868   1.436       .  S
N859        C870   1.367       .  A
C873        N891   1.335       .  A
C873        C910   1.483       .  S
N874        N891   1.318       .  A
N874        N896   1.320       .  A
N874       Co911   2.051       .  S
C875        N900   1.340       .  A
C875        C913   1.452       .  S
C875        H920   1.081       .  S
H876        C917   1.081       .  S
C877        N901   1.331       .  A
C877        C881   1.438       .  S
C877        H906   1.081       .  S
Co878       N896   2.152       .  S
Co878       N886   2.096       .  S
Co878       N918   2.144       .  S
Co878       N894   2.103       .  S
N879        C917   1.340       .  A
N879       Co880   2.089       .  S
Co880       N883   2.156       .  S
Co880       N900   2.092       .  S
Co880       N887   2.151       .  S
Co880      Cl922   2.459       .  S
C881        N919   1.369       .  A
N882        N912   1.317       .  A
N882       Co915   2.042       .  S
N883        N901   1.317       .  A
N883        N919   1.340       .  A
N884        N894   1.326       .  A
H885        C910   1.082       .  S
N886        N907   1.325       .  A
N887        N905   1.314       .  A
N887        N892   1.339       .  A
C888        N892   1.369       .  A
C888        C916   1.432       .  S
N889        C904   1.338       .  A
N889       Co911   2.054       .  S
C890        N918   1.359       .  A
C890        C893   1.483       .  S
C890        H924   1.082       .  S
C893        N914   1.331       .  A
N895        C921   1.340       .  A
N895       Co911   2.062       .  S
N896        C910   1.359       .  A
N897        N925   1.319       .  A
N897       Co915   2.054       .  S
H898        C921   1.075       .  S
H899        C916   1.082       .  S
N901       Co915   2.046       .  S
N902        N914   1.315       .  A
N902        N918   1.317       .  A
N902       Co911   2.038       .  S
C903        N907   1.347   1_554  A
C903        C991   1.431       .  S
C904        C923   1.434   1_556  S
C904        H908   1.074       .  S
N905        C916   1.327       .  A
N905       Co915   2.025       .  S
C909        N925   1.336       .  A
C909        C981   1.399       .  S
C913        C980   1.435       .  S
Co915      Cl922   2.436       .  S
C923        C985   1.402       .  S
C926        N944   1.335   1_554  A
C926        C993   1.398       .  S
N927        N944   1.318       .  A
N927       Co964   2.051       .  S
C928        N953   1.359       .  A
C928        C966   1.483       .  S
C928        H973   1.082       .  S
H929        C970   1.082       .  S
C930        N954   1.339       .  A
C930        C934   1.451       .  S
C930        H959   1.081       .  S
Co931       N949   2.054       .  S
Co931       N939   2.039       .  S
Co931       N971   2.056       .  S
Co931       N947   2.043       .  S
Co931      Cl975   2.479       .  S
N932        C970   1.359       .  A
N932        N939   1.318       .  A
N932       Co933   2.149       .  S
Co933       N936   2.096       .  S
Co933       N953   2.146       .  S
Co933       N940   2.100       .  S
Co933      Cl975   2.436       .  S
C934        C983   1.430   1_556  S
N935        N942   1.315       .  A
N935        N965   1.339       .  A
N935       Co968   2.150       .  S
N936        N972   1.324       .  A
N937        C966   1.331       .  A
N937        N947   1.315       .  A
H938        C963   1.074       .  S
N939        N960   1.316       .  A
N940        N945   1.326       .  A
C941        N945   1.348       .  A
C941        C979   1.435       .  S
N942        C957   1.331       .  A
N942       Co964   2.039       .  S
C943        N971   1.339       .  A
C943        C946   1.433       .  S
C943        H977   1.074       .  S
C946       C1001   1.402       .  S
N947        N953   1.319       .  A
N948        C974   1.328       .  A
N948        N950   1.315       .  A
N948       Co964   2.035       .  S
N949        C963   1.339       .  A
N950        N978   1.339       .  A
N950       Co968   2.149       .  S
H951        C974   1.081       .  S
H952        C969   1.081       .  S
N954       Co968   2.089       .  S
N955        N967   1.319       .  A
N955       Co964   2.054       .  S
C956        N960   1.332       .  A
C956        C970   1.483       .  S
C957        C976   1.438       .  S
C957        H961   1.082       .  S
N958        C969   1.340       .  A
N958       Co968   2.093       .  S
C962        N978   1.368       .  A
C962        C974   1.436       .  S
N965        C976   1.368       .  A
C979        C980   1.205       .  T
C981        C982   1.178       .  T
C983        C984   1.202   1_545  T
C987        C988   1.177   1_556  T
C989        C990   1.203   1_545  T
C993        C994   1.177   1_554  T
C997        C998   1.205       .  T
C999       C1000   1.178       .  T
C1001      C1002   1.178       .  T
