geometry optimzed in LAMMPS
_audit_creation_date              2020-11-30 
_audit_creation_method            'lammps2cif' 
_symmetry_space_group_name_H-M    'P1' 
_symmetry_Int_Tables_number       1 
_symmetry_cell_setting            triclinic 
loop_ 
_symmetry_equiv_pos_as_xyz 
  x,y,z 
_cell_length_a                    37.0757322422964 
_cell_length_b                    37.19717178324593 
_cell_length_c                    47.60342234097621 
_cell_angle_alpha                 88.23951294017418 
_cell_angle_beta                  91.80779895145696 
_cell_angle_gamma                 122.02822706880963 
loop_ 
_atom_site_label 
_atom_site_type_symbol 
_atom_site_fract_x 
_atom_site_fract_y 
_atom_site_fract_z 
_atom_site_charge 
C1          C  0.33983493  0.17005245  0.00207834    -0.01590
C2          C  0.33365118  0.16652268  0.13056174    -0.01590
C3          C  0.16095659  0.34694455  0.38539970    -0.01590
C4          C  0.15456529  0.33909425  0.25686674    -0.01590
C5          C  0.43039783  0.08290246  0.47738671     0.43350
N6          N  0.44405198  0.03352035  0.47638598     0.02240
C7          C  0.13816108  0.06185667  0.44330044    -0.05640
H8          H  0.07571786  0.12488213  0.36969611     0.07730
C9          C  0.45811664  0.47554393  0.34882501    -0.05990
Co10       Co  0.03709261  0.06860783  0.47110175     0.74180
N11         N  0.05970407  0.09534257  0.41068825    -0.25160
Co12       Co  0.05694342  0.03803173  0.40750557     0.74070
C13         C  0.48891889  0.00985402  0.33058368     0.43450
N14         N  0.40507547  0.44784848  0.41612338     0.01860
N15         N  0.01400050  0.01971417  0.37313055     0.01960
N16         N  0.12399857  0.08070908  0.48423309    -0.46010
H17         H  0.50165616  0.13449181  0.47326534     0.07720
N18         N  0.05312107  0.10712504  0.43488190     0.02250
N19         N  0.05169246  0.47904755  0.40588448     0.01990
C20         C  0.06316834  0.42802231  0.40560529     0.43590
N21         N  0.39868030  0.45907575  0.44061746    -0.24620
C22         C  0.03670447  0.03692749  0.03345915    -0.05540
N23         N  0.41244587  0.04032856  0.47808767    -0.45730
N24         N  0.08238817  0.47088605  0.40475606    -0.45950
C25         C  0.50569763  0.50119378  0.05095924     0.43370
N26         N  0.09151623  0.06659379  0.46620401     0.02240
N27         N  0.43524142  0.41731697  0.47030875    -0.24640
N28         N  0.48155123  0.06893624  0.47457977    -0.25140
N29         N  0.44305766  0.40721591  0.44590338     0.01870
H30         H  0.40957881  0.38124214  0.00877822     0.07760
H31         H  0.99177622  0.37796999  0.40960365     0.07800
N32         N  0.09916162  0.05575644  0.44194777    -0.25180
N33         N  0.47648700  0.48425064  0.37458658    -0.24800
N34         N  0.48228411  0.49290890  0.00819480     0.02240
C35         C  0.06886214  0.15988171  0.40662213     0.43640
C36         C  0.36000218  0.45279977  0.44088422    -0.06050
N37         N  0.01370264  0.44415118  0.40725327    -0.24800
H38         H  0.42889124  0.44661242  0.34308608     0.07780
N39         N  0.05880789  0.14537233  0.43339118    -0.46020
H40         H  0.34507804  0.45645186  0.45882758     0.07770
C41         C  0.42134579  0.35111982  0.47104374     0.43470
C42         C  0.47626555  0.10171333  0.47489880    -0.05550
Co43       Co  0.43969106  0.47530456  0.47429855     0.73820
N44         N  0.37110438  0.43212146  0.39934763    -0.45740
C45         C  0.15413089  0.07742030  0.47152459     0.43740
N46         N  0.47269555  0.47563907  0.03377413    -0.45730
Co47       Co  0.45906106  0.44559065  0.41062826     0.73890
C48         C  0.01767940  0.41051982  0.40748083    -0.06050
C49         C  0.06911707  0.12612682  0.39146052    -0.05620
N50         N  0.01931514  0.02911412  0.00736338    -0.25140
N51         N  0.02297465  0.03568038  0.34714138    -0.45910
H52         H  0.15426408  0.05818437  0.42609483     0.07740
C53         C  0.42105047  0.38355859  0.48778162    -0.06030
Cl54       Cl  0.49824693  0.00690698  0.44090155    -0.49030
C55         C  0.34207213  0.43505819  0.41378627     0.43500
H56         H  0.06537342  0.06588004  0.03990225     0.07710
N57         N  0.43531773  0.36838940  0.44555931    -0.45740
C58         C  0.33201391  0.41970890  0.21472671     0.43350
N59         N  0.39099777  0.45007387  0.19239325     0.02240
C60         C  0.08394039  0.47115809  0.22677064    -0.05640
H61         H  0.05615281  0.06678885  0.28818699     0.07730
C62         C  0.06201873  0.14568630  0.19129518    -0.05990
Co63       Co  0.45881759  0.44301411  0.22361358     0.74180
N64         N  0.01714293  0.02091476  0.25669080    -0.25160
Co65       Co  0.05710763  0.03771723  0.22219701     0.74070
C66         C  0.08231862  0.16153599  0.21871406     0.43450
N67         N  0.47339641  0.06252703  0.15437658     0.01860
N68         N  0.06115362  0.09556470  0.21618541     0.01960
N69         N  0.01946788  0.41028531  0.22832788    -0.46010
H70         H  0.36317109  0.40737615  0.25353220     0.07720
N71         N  0.47949322  0.48527105  0.25751170     0.02250
N72         N  0.09607692  0.05374512  0.18781538     0.01990
C73         C  0.15128109  0.07591193  0.16306809     0.43590
N74         N  0.43626230  0.02625654  0.15467522    -0.24620
C75         C  0.43068786  0.36267937  0.19072613    -0.05540
N76         N  0.35031307  0.43807632  0.19002138    -0.45730
N77         N  0.13512011  0.06113273  0.18874065    -0.45950
C78         C  0.41342539  0.34664439  0.16294711     0.43370
N79         N  0.01580145  0.44387025  0.22724043     0.02240
N80         N  0.47310740  0.48636034  0.12424558    -0.24640
N81         N  0.40100981  0.44071749  0.21732582    -0.25140
N82         N  0.01018984  0.02256241  0.12399425     0.01870
H83         H  0.43657961  0.44096055  0.09186434     0.07760
H84         H  0.12102684  0.09098278  0.12513244     0.07800
N85         N  0.05304294  0.47983420  0.22629592    -0.25180
N86         N  0.05068904  0.10499799  0.19152286    -0.24800
N87         N  0.42996047  0.41116242  0.16487741     0.02240
C88         C  0.48990057  0.01013525  0.29941461     0.43640
C89         C  0.40527828  0.03460567  0.15369158    -0.06050
N90         N  0.08589132  0.06362009  0.16320819    -0.24800
H91         H  0.05896815  0.16254647  0.17340822     0.07780
N92         N  0.46251385  0.47726205  0.28288059    -0.46020
H93         H  0.37152282  0.01131158  0.15403248     0.07770
C94         C  0.50275992  0.49924152  0.08201415     0.43470
C95         C  0.36581538  0.42176218  0.23300986    -0.05550
Co96       Co  0.43223357  0.46825028  0.15855794     0.73820
N97         N  0.46964718  0.09600339  0.15329712    -0.45740
C98         C  0.06153292  0.42498051  0.22787074     0.43740
N99         N  0.41309334  0.37807154  0.14800897    -0.45730
Co100      Co  0.03007381  0.06372697  0.15787095     0.73890
C101        C  0.11883410  0.07780975  0.14602858    -0.06050
C102        C  0.02620667  0.03896147  0.28203449    -0.05620
N103        N  0.43985071  0.40246246  0.19001388    -0.25140
N104        N  0.08043493  0.12859780  0.23303785    -0.45910
H105        H  0.11774289  0.49420946  0.22594081     0.07740
C106        C  0.46574326  0.46915070  0.09865173    -0.06030
Cl107      Cl  0.49435795  0.00322743  0.19065254    -0.49030
C108        C  0.42757004  0.08080038  0.15291582     0.43500
H109        H  0.43288334  0.34616613  0.20915238     0.07710
N110        N  0.02859201  0.03170787  0.09911134    -0.45740
C111        C  0.10116570  0.20530378  0.22963919    -0.04440
C112        C  0.12191501  0.24113204  0.21170728    -0.01560
C113        C  0.12563830  0.27897477  0.21961214     0.03430
C114        C  0.13037060  0.28971480  0.24852296    -0.04440
C115        C  0.10808765  0.25266932  0.26706510    -0.01550
C116        C  0.09370830  0.21129717  0.25735656     0.03420
C117        C  0.13285846  0.23806978  0.18330752     0.38070
C118        C  0.09749619  0.25351303  0.29594927     0.38060
C119        C  0.07061262  0.17459926  0.27608196     0.36490
C120        C  0.09670964  0.28590702  0.20268724     0.36490
N121        N  0.05240729  0.14570332  0.29116197    -0.38330
N122        N  0.07208387  0.28926719  0.18917573    -0.38330
N123        N  0.08928539  0.25094886  0.31946408    -0.37780
N124        N  0.14172735  0.23590165  0.16059419    -0.37780
C125        C  0.12369267  0.35413635  0.24418892    -0.04440
C126        C  0.08561000  0.34400607  0.25844506    -0.01560
C127        C  0.06646273  0.36796663  0.25350911     0.03430
C128        C  0.08030174  0.39818945  0.23165438    -0.04440
C129        C  0.11052290  0.40117775  0.21301703    -0.01550
C130        C  0.13009406  0.37741309  0.21811913     0.03420
C131        C  0.06457228  0.30993851  0.27879083     0.38070
C132        C  0.12099282  0.42824838  0.18814192     0.38060
C133        C  0.15339996  0.37487707  0.19500117     0.36490
C134        C  0.03424723  0.36353009  0.27251384     0.36490
N135        N  0.17135237  0.37288113  0.17622303    -0.38330
N136        N  0.00895120  0.36027157  0.28778405    -0.38330
N137        N  0.12946229  0.44988991  0.16833450    -0.37780
N138        N  0.04275163  0.28399240  0.29486066    -0.37780
C139        C  0.20344918  0.36639030  0.24571022    -0.04440
C140        C  0.22516414  0.40663451  0.23062806    -0.01560
C141        C  0.26370316  0.41996917  0.21617617     0.03430
C142        C  0.28545265  0.39851193  0.22082543    -0.04440
C143        C  0.26462639  0.36097478  0.23715991    -0.01550
C144        C  0.23375690  0.35637760  0.25556426     0.03420
C145        C  0.21543956  0.43917668  0.23363564     0.38070
C146        C  0.28222934  0.33458310  0.24152953     0.38060
C147        C  0.25689280  0.37954203  0.28067318     0.36490
C148        C  0.27953642  0.45448428  0.19578552     0.36490
N149        N  0.27687673  0.39998611  0.29957825    -0.38330
N150        N  0.29040057  0.98068965  0.17859726    -0.38330
N151        N  0.29618993  0.31334539  0.24499033    -0.37780
N152        N  0.21083175  0.46758516  0.23409062    -0.37780
C153        C  0.08890693  0.20604326  0.39908035    -0.04440
C154        C  0.07758528  0.23079496  0.41398998    -0.01560
C155        C  0.10352472  0.27569322  0.41350353     0.03430
C156        C  0.13919806  0.29764824  0.39500463    -0.04440
C157        C  0.15367538  0.27145549  0.38530461    -0.01550
C158        C  0.12564599  0.22743073  0.38259229     0.03420
C159        C  0.03771812  0.21027022  0.42891411     0.38070
C160        C  0.19655900  0.28203236  0.39195341     0.38060
C161        C  0.13937183  0.20469288  0.36616256     0.36490
C162        C  0.09556368  0.29755967  0.43493661     0.36490
N163        N  0.15129297  0.18764286  0.35282588    -0.38330
N164        N  0.08884017  0.31415021  0.45238708    -0.38330
N165        N  0.22946518  0.28719035  0.39803235    -0.37780
N166        N  0.50566257  0.19468602  0.44039975    -0.37780
C167        C  0.08519860  0.40405192  0.40462953    -0.04440
C168        C  0.06624509  0.36485383  0.39075277    -0.01560
C169        C  0.08964568  0.34543712  0.38648466     0.03430
C170        C  0.13321653  0.36474831  0.39604148    -0.04440
C171        C  0.14865811  0.40033874  0.41438495    -0.01550
C172        C  0.12580152  0.42069660  0.41714809     0.03420
C173        C  0.02427898  0.34629425  0.37766042     0.38070
C174        C  0.18628514  0.41607654  0.43232575     0.38060
C175        C  0.14463578  0.45928470  0.43330928     0.36490
C176        C  0.06888481  0.30687224  0.37021133     0.36490
N177        N  0.16028464  0.99004315  0.44611585    -0.38330
N178        N  0.05047176  0.27549328  0.35802852    -0.38330
N179        N  0.21588664  0.43011462  0.44715749    -0.37780
N180        N  0.49099287  0.33093825  0.36694149    -0.37780
C181        C  0.20815784  0.37421474  0.39662010    -0.04440
C182        C  0.23871076  0.41346118  0.38296089    -0.01560
C183        C  0.28247542  0.43035157  0.38667322     0.03430
C184        C  0.29674345  0.41286035  0.40704134    -0.04440
C185        C  0.26768935  0.37929784  0.42445877    -0.01550
C186        C  0.22372368  0.36138403  0.42028324     0.03420
C187        C  0.22740660  0.44011064  0.36734034     0.38070
C188        C  0.28307263  0.36231272  0.44638828     0.38060
C189        C  0.19610885  0.33293936  0.44218919     0.36490
C190        C  0.31321156  0.46657391  0.36981156     0.36490
N191        N  0.17623772  0.31075608  0.46055683    -0.38330
N192        N  0.33762370  0.99520603  0.35637536    -0.38330
N193        N  0.29534736  0.34871115  0.46373486    -0.37780
N194        N  0.22329756  0.46528201  0.35533849    -0.37780
C195        C  0.16037394  0.34505602  0.29009357    -0.04440
C196        C  0.17710072  0.32523560  0.30805482    -0.01560
C197        C  0.18525466  0.33491179  0.33677905     0.03430
C198        C  0.16340055  0.35041655  0.35151994    -0.04440
C199        C  0.15020921  0.37358327  0.33344410    -0.01550
C200        C  0.15525930  0.37545976  0.30388396     0.03420
C201        C  0.18820376  0.29553413  0.29812575     0.38070
C202        C  0.13782098  0.40203850  0.34338211     0.38060
C203        C  0.15853340  0.41176764  0.28897121     0.36490
C204        C  0.22545876  0.34145384  0.34703401     0.36490
N205        N  0.15934901  0.44125060  0.27960469    -0.38330
N206        N  0.25884316  0.34784077  0.35309693    -0.38330
N207        N  0.12906720  0.42658314  0.34885778    -0.37780
N208        N  0.19711218  0.27181808  0.29086703    -0.37780
C209        C  0.19667739  0.09557766  0.15603394    -0.04440
C210        C  0.22917565  0.12431595  0.17418429    -0.01560
C211        C  0.27238956  0.14328018  0.16703251     0.03430
C212        C  0.28460008  0.13900246  0.13930545    -0.04440
C213        C  0.24935495  0.11193246  0.12049640    -0.01550
C214        C  0.20720139  0.08747657  0.13013003     0.03420
C215        C  0.21818143  0.13566677  0.20013574     0.38070
C216        C  0.25176183  0.11077393  0.09037097     0.38060
C217        C  0.17371641  0.05418513  0.11271728     0.36490
C218        C  0.30308697  0.16592289  0.18947262     0.36490
N219        N  0.14722038  0.02768498  0.09892566    -0.38330
N220        N  0.32510452  0.18307706  0.20860539    -0.38330
N221        N  0.24924477  0.10779616  0.06618020    -0.37780
N222        N  0.20946530  0.14506656  0.22063722    -0.37780
C223        C  0.35240172  0.21310590  0.14247479    -0.04440
C224        C  0.38993487  0.23480241  0.16025368    -0.01560
C225        C  0.41197524  0.27903181  0.16301065     0.03430
C226        C  0.39241878  0.30147199  0.15507902    -0.04440
C227        C  0.35092798  0.27923458  0.14346810    -0.01550
C228        C  0.33118054  0.23581136  0.13669855     0.03420
C229        C  0.40471290  0.21329036  0.17886243     0.38070
C230        C  0.32857311  0.30116956  0.13808677     0.38060
C231        C  0.29025886  0.21628326  0.12203218     0.36490
C232        C  0.45546411  0.30144812  0.17411401     0.36490
N233        N  0.25778441  0.20167014  0.11028160    -0.38330
N234        N  0.49008664  0.31910648  0.18283009    -0.38330
N235        N  0.31074195  0.31864373  0.13384765    -0.37780
N236        N  0.41710759  0.19731525  0.19423226    -0.37780
C237        C  0.36092638  0.14733363  0.14198023    -0.04440
C238        C  0.34614049  0.11111083  0.16070928    -0.01560
C239        C  0.37260458  0.09536748  0.16770150     0.03430
C240        C  0.40821437  0.10692401  0.15155659    -0.04440
C241        C  0.42397957  0.14231414  0.13350823    -0.01550
C242        C  0.40315212  0.16478711  0.13106282     0.03420
C243        C  0.30364731  0.08615526  0.17177566     0.38070
C244        C  0.46112261  0.15524211  0.11669908     0.38060
C245        C  0.42656719  0.20642409  0.11769009     0.36490
C246        C  0.36476570  0.06909525  0.19275509     0.36490
N247        N  0.44735871  0.24037342  0.10844436    -0.38330
N248        N  0.35953984  0.04933215  0.21317496    -0.38330
N249        N  0.49047095  0.16539021  0.10309644    -0.37780
N250        N  0.27016312  0.06413573  0.18106936    -0.37780
C251        C  0.28986190  0.14695960  0.49396299    -0.04440
C252        C  0.26099867  0.10285960  0.50190833    -0.01560
C253        C  0.21680207  0.08122492  0.49557593     0.03430
C254        C  0.19956666  0.10131208  0.48029670    -0.04440
C255        C  0.22532379  0.14431564  0.47340425    -0.01550
C256        C  0.26910256  0.16766051  0.48117255     0.03420
C257        C  0.27496720  0.07648090  0.51493632     0.38070
C258        C  0.20563601  0.16515505  0.45912943     0.38060
C259        C  0.28851355  0.21304033  0.47760914     0.36490
C260        C  0.18844289  0.03738592  0.50470071     0.36490
N261        N  0.30037641  0.24862145  0.47442875    -0.38330
N262        N  0.16600380  0.50256905  0.51200812    -0.38330
N263        N  0.18986374  0.18164850  0.44799701    -0.37780
N264        N  0.28138465  0.05132370  0.02441553    -0.37780
C265        C  0.36694187  0.21841819  0.49274976    -0.04440
C266        C  0.36908357  0.23135803  0.46399684    -0.01560
C267        C  0.38698292  0.27469046  0.45682280     0.03430
C268        C  0.40529375  0.30593113  0.47796727    -0.04440
C269        C  0.41149782  0.29411527  0.00508966    -0.01550
C270        C  0.39615604  0.25130808  0.01148234     0.03420
C271        C  0.35045698  0.20071448  0.44162658     0.38070
C272        C  0.43730401  0.32623035  0.02575662     0.38060
C273        C  0.41925255  0.24300496  0.03326198     0.36490
C274        C  0.38285416  0.28603039  0.42792718     0.36490
N275        N  0.43909107  0.23650264  0.04947391    -0.38330
N276        N  0.37924752  0.29473706  0.40489318    -0.38330
N277        N  0.45790700  0.35173042  0.04225975    -0.37780
N278        N  0.33627368  0.17828409  0.42266717    -0.37780
C279        C  0.40750767  0.10584994  0.47982962    -0.04440
C280        C  0.36655713  0.09043321  0.46772918    -0.01560
C281        C  0.34504820  0.11238980  0.47141569     0.03430
C282        C  0.36415780  0.14994952  0.48811396    -0.04440
C283        C  0.40936108  0.16976701  0.99189671    -0.01550
C284        C  0.42817819  0.14572097  0.49258508     0.03420
C285        C  0.34678685  0.05258473  0.45080239     0.38070
C286        C  0.43887098  0.21335581  0.98323220     0.38060
C287        C  0.46834313  0.16262570  0.00784657     0.36490
C288        C  0.30641273  0.09829496  0.45491529     0.36490
N289        N  0.50013631  0.17643501  0.02034616    -0.38310
N290        N  0.27585962  0.08627486  0.44123170    -0.38330
N291        N  0.46345845  0.24757812  0.97570147    -0.37780
N292        N  0.33070760  0.02260313  0.43710394    -0.37780
C293        C  0.33930144  0.16706038  0.03565258    -0.04440
C294        C  0.34795498  0.14005036  0.05308195    -0.01560
C295        C  0.33869482  0.13512455  0.08224444     0.03430
C296        C  0.33844606  0.16804663  0.09720647    -0.04440
C297        C  0.34225990  0.20118840  0.07956751    -0.01550
C298        C  0.32930420  0.19288282  0.05139700     0.03420
C299        C  0.36353593  0.11454343  0.04309995     0.38070
C300        C  0.37147977  0.24565146  0.08555215     0.38060
C301        C  0.30990364  0.21532185  0.04023493     0.36490
C302        C  0.32571014  0.09421119  0.09535798     0.36490
N303        N  0.29413148  0.23449225  0.03481556    -0.38330
N304        N  0.31490982  0.06108758  0.10493631    -0.38330
N305        N  0.39542430  0.28147684  0.08900574    -0.37780
N306        N  0.37469121  0.09174170  0.03805421    -0.37780
C307        C  0.33983504  0.17005245  0.50207836    -0.01590
C308        C  0.33365134  0.16652268  0.63056177    -0.01590
C309        C  0.16095657  0.34694453  0.88539970    -0.01590
C310        C  0.15456526  0.33909421  0.75686675    -0.01590
C311        C  0.43039771  0.08290245  0.97738669     0.43350
N312        N  0.44405182  0.03352032  0.97638595     0.02240
C313        C  0.13816092  0.06185658  0.94330046    -0.05640
H314        H  0.07571781  0.12488210  0.86969613     0.07730
C315        C  0.45811662  0.47554391  0.84882502    -0.05990
Co316      Co  0.03709245  0.06860776  0.97110175     0.74180
N317        N  0.05970397  0.09534252  0.91068826    -0.25160
Co318      Co  0.05694329  0.03803165  0.90750558     0.74070
C319        C  0.48891883  0.00985400  0.83058365     0.43450
N320        N  0.40507546  0.44784847  0.91612338     0.01860
N321        N  0.01400040  0.01971413  0.87313053     0.01960
N322        N  0.12399842  0.08070902  0.98423310    -0.46010
H323        H  0.50165605  0.13449178  0.97326534     0.07720
N324        N  0.05312096  0.10712499  0.93488191     0.02250
N325        N  0.05169246  0.47904756  0.90588448     0.01990
C326        C  0.06316834  0.42802232  0.90560529     0.43590
N327        N  0.39868029  0.45907575  0.94061745    -0.24620
C328        C  0.03670470  0.03692758  0.53345915    -0.05540
N329        N  0.41244573  0.04032855  0.97808764    -0.45730
N330        N  0.08238817  0.47088606  0.90475606    -0.45950
C331        C  0.50569761  0.50119377  0.55095926     0.43370
N332        N  0.09151607  0.06659370  0.96620403     0.02240
N333        N  0.43524142  0.41731699  0.97030875    -0.24640
N334        N  0.48155108  0.06893621  0.97457975    -0.25140
N335        N  0.44305766  0.40721593  0.94590338     0.01870
H336        H  0.40957886  0.38124212  0.50877823     0.07760
H337        H  0.99177623  0.37797000  0.90960366     0.07800
N338        N  0.09916146  0.05575634  0.94194779    -0.25180
N339        N  0.47648699  0.48425063  0.87458658    -0.24800
N340        N  0.48228411  0.49290888  0.50819481     0.02240
C341        C  0.06886209  0.15988168  0.90662214     0.43640
C342        C  0.36000217  0.45279976  0.94088421    -0.06050
N343        N  0.01370263  0.44415119  0.90725327    -0.24800
H344        H  0.42889122  0.44661240  0.84308609     0.07780
N345        N  0.05880781  0.14537229  0.93339119    -0.46020
H346        H  0.34507803  0.45645186  0.95882757     0.07770
C347        C  0.42134576  0.35111983  0.97104374     0.43470
C348        C  0.47626543  0.10171330  0.97489879    -0.05550
Co349      Co  0.43969105  0.47530458  0.97429854     0.73820
N350        N  0.37110437  0.43212145  0.89934763    -0.45740
C351        C  0.15413075  0.07742024  0.97152461     0.43740
N352        N  0.47269554  0.47563905  0.53377415    -0.45730
Co353      Co  0.45906106  0.44559065  0.91062826     0.73890
C354        C  0.01767940  0.41051983  0.90748084    -0.06050
C355        C  0.06911700  0.12612678  0.89146053    -0.05620
N356        N  0.01931534  0.02911420  0.50736338    -0.25140
N357        N  0.02297458  0.03568035  0.84714136    -0.45910
H358        H  0.15426393  0.05818429  0.92609485     0.07740
C359        C  0.42105044  0.38355860  0.98778162    -0.06030
Cl360      Cl  0.49824677  0.00690693  0.94090154    -0.49030
C361        C  0.34207211  0.43505817  0.91378627     0.43500
H362        H  0.06537365  0.06588013  0.53990224     0.07710
N363        N  0.43531771  0.36838941  0.94555932    -0.45740
C364        C  0.33201390  0.41970886  0.71472675     0.43350
N365        N  0.39099775  0.45007382  0.69239327     0.02240
C366        C  0.08394039  0.47115805  0.72677063    -0.05640
H367        H  0.05615280  0.06678883  0.78818699     0.07730
C368        C  0.06201887  0.14568630  0.69129517    -0.05990
Co369      Co  0.45881759  0.44301408  0.72361360     0.74180
N370        N  0.01714297  0.02091475  0.75669080    -0.25160
Co371      Co  0.05710773  0.03771723  0.72219704     0.74070
C372        C  0.08231871  0.16153599  0.71871406     0.43450
N373        N  0.47339662  0.06252708  0.65437654     0.01860
N374        N  0.06115374  0.09556471  0.71618541     0.01960
N375        N  0.01946787  0.41028528  0.72832788    -0.46010
H376        H  0.36317111  0.40737614  0.75353224     0.07720
N377        N  0.47949321  0.48527101  0.75751172     0.02250
N378        N  0.09607707  0.05374513  0.68781543     0.01990
C379        C  0.15128126  0.07591190  0.66306816     0.43590
N380        N  0.43626251  0.02625660  0.65467517    -0.24620
C381        C  0.43068787  0.36267935  0.69072614    -0.05540
N382        N  0.35031305  0.43807627  0.69002142    -0.45730
N383        N  0.13512026  0.06113272  0.68874072    -0.45950
C384        C  0.41342541  0.34664437  0.66294712     0.43370
N385        N  0.01580145  0.44387023  0.72724043     0.02240
N386        N  0.47310738  0.48636033  0.62424560    -0.24640
N387        N  0.40100980  0.44071746  0.71732585    -0.25140
N388        N  0.01019008  0.02256245  0.62399425     0.01870
H389        H  0.43657960  0.44096054  0.59186436     0.07760
H390        H  0.12102706  0.09098276  0.62513249     0.07800
N391        N  0.05304294  0.47983417  0.72629592    -0.25180
N392        N  0.05068919  0.10499800  0.69152285    -0.24800
N393        N  0.42996046  0.41116239  0.66487742     0.02240
C394        C  0.48990056  0.01013523  0.79941458     0.43640
C395        C  0.40527850  0.03460574  0.65369153    -0.06050
N396        N  0.08589150  0.06362009  0.66320822    -0.24800
H397        H  0.05896830  0.16254647  0.67340821     0.07780
N398        N  0.46251384  0.47726202  0.78288060    -0.46020
H399        H  0.37152304  0.01131166  0.65403243     0.07770
C400        C  0.50275990  0.49924153  0.58201417     0.43470
C401        C  0.36581538  0.42176216  0.73300989    -0.05550
Co402      Co  0.43223354  0.46825025  0.65855797     0.73820
N403        N  0.46964742  0.09600346  0.65329707    -0.45740
C404        C  0.06153291  0.42498048  0.72787073     0.43740
N405        N  0.41309335  0.37807153  0.64800898    -0.45730
Co406      Co  0.03007401  0.06372699  0.65787095     0.73890
C407        C  0.11883429  0.07780974  0.64602864    -0.06050
C408        C  0.02620667  0.03896145  0.78203449    -0.05620
N409        N  0.43985070  0.40246244  0.69001389    -0.25140
N410        N  0.08043501  0.12859780  0.73303786    -0.45910
H411        H  0.11774288  0.49420943  0.72594080     0.07740
C412        C  0.46574324  0.46915070  0.59865175    -0.06030
Cl413      Cl  0.49435809  0.00322745  0.69065252    -0.49030
C414        C  0.42757028  0.08080046  0.65291576     0.43500
H415        H  0.43288336  0.34616612  0.70915239     0.07710
N416        N  0.02859226  0.03170791  0.59911134    -0.45740
C417        C  0.10116574  0.20530377  0.72963920    -0.04440
C418        C  0.12191504  0.24113204  0.71170729    -0.01560
C419        C  0.12563826  0.27897474  0.71961215     0.03430
C420        C  0.13037058  0.28971477  0.74852297    -0.04440
C421        C  0.10808762  0.25266928  0.76706510    -0.01550
C422        C  0.09370831  0.21129714  0.75735656     0.03420
C423        C  0.13285851  0.23806982  0.68330753     0.38070
C424        C  0.09749613  0.25351298  0.79594927     0.38060
C425        C  0.07061265  0.17459923  0.77608196     0.36490
C426        C  0.09670948  0.28590687  0.70268730     0.36490
N427        N  0.05240734  0.14570328  0.79116197    -0.38330
N428        N  0.07208363  0.28926697  0.68917583    -0.38330
N429        N  0.08928532  0.25094879  0.81946408    -0.37780
N430        N  0.14172742  0.23590172  0.66059420    -0.37780
C431        C  0.12369263  0.35413631  0.74418894    -0.04440
C432        C  0.08561000  0.34400608  0.75844510    -0.01560
C433        C  0.06646275  0.36796666  0.75350915     0.03430
C434        C  0.08030172  0.39818941  0.73165439    -0.04440
C435        C  0.11052283  0.40117764  0.71301701    -0.01550
C436        C  0.13009397  0.37741298  0.71811913     0.03420
C437        C  0.06457228  0.30993854  0.77879088     0.38070
C438        C  0.12099269  0.42824821  0.68814188     0.38060
C439        C  0.15339983  0.37487690  0.69500116     0.36490
C440        C  0.03424730  0.36353018  0.77251390     0.36490
N441        N  0.17135221  0.37288090  0.67622301    -0.38330
N442        N  0.00895132  0.36027172  0.78778413    -0.38330
N443        N  0.12946213  0.44988969  0.66833443    -0.37780
N444        N  0.04275164  0.28399244  0.79486073    -0.37780
C445        C  0.20344915  0.36639027  0.74571023    -0.04440
C446        C  0.22516408  0.40663444  0.73062802    -0.01560
C447        C  0.26370311  0.41996908  0.71617614     0.03430
C448        C  0.28545264  0.39851190  0.72082548    -0.04440
C449        C  0.26462642  0.36097480  0.73716002    -0.01550
C450        C  0.23375690  0.35637765  0.75556434     0.03420
C451        C  0.21543948  0.43917661  0.73363554     0.38070
C452        C  0.28222939  0.33458316  0.74152973     0.38060
C453        C  0.25689274  0.37954216  0.78067326     0.36490
C454        C  0.27953635  0.45448413  0.69578544     0.36490
N455        N  0.27687662  0.39998629  0.79957832    -0.38330
N456        N  0.29040089  0.98069015  0.67859754    -0.38330
N457        N  0.29619000  0.31334548  0.74499060    -0.37780
N458        N  0.21083166  0.46758508  0.73409047    -0.37780
C459        C  0.08890690  0.20604324  0.89908038    -0.04440
C460        C  0.07758525  0.23079494  0.91399000    -0.01560
C461        C  0.10352470  0.27569320  0.91350354     0.03430
C462        C  0.13919804  0.29764822  0.89500464    -0.04440
C463        C  0.15367536  0.27145547  0.88530463    -0.01550
C464        C  0.12564597  0.22743070  0.88259232     0.03420
C465        C  0.03771809  0.21027021  0.92891413     0.38070
C466        C  0.19655898  0.28203234  0.89195343     0.38060
C467        C  0.13937182  0.20469285  0.86616260     0.36490
C468        C  0.09556366  0.29755967  0.93493662     0.36490
N469        N  0.15129296  0.18764281  0.85282594    -0.38330
N470        N  0.08884015  0.31415021  0.95238708    -0.38330
N471        N  0.22946517  0.28719034  0.89803238    -0.37780
N472        N  0.50566254  0.19468603  0.94039976    -0.37780
C473        C  0.08519861  0.40405193  0.90462953    -0.04440
C474        C  0.06624509  0.36485384  0.89075277    -0.01560
C475        C  0.08964567  0.34543711  0.88648466     0.03430
C476        C  0.13321652  0.36474830  0.89604148    -0.04440
C477        C  0.14865811  0.40033874  0.91438494    -0.01550
C478        C  0.12580153  0.42069661  0.91714807     0.03420
C479        C  0.02427898  0.34629426  0.87766042     0.38070
C480        C  0.18628515  0.41607656  0.93232573     0.38060
C481        C  0.14463580  0.45928473  0.93330926     0.36490
C482        C  0.06888480  0.30687223  0.87021135     0.36490
N483        N  0.16028443  0.99004294  0.94611591    -0.38330
N484        N  0.05047174  0.27549326  0.85802855    -0.38330
N485        N  0.21588667  0.43011465  0.94715746    -0.37780
N486        N  0.49099287  0.33093827  0.86694148    -0.37780
C487        C  0.20815783  0.37421471  0.89662010    -0.04440
C488        C  0.23871075  0.41346115  0.88296088    -0.01560
C489        C  0.28247541  0.43035153  0.88667321     0.03430
C490        C  0.29674343  0.41286033  0.90704134    -0.04440
C491        C  0.26768933  0.37929783  0.92445877    -0.01550
C492        C  0.22372366  0.36138402  0.92028325     0.03420
C493        C  0.22740660  0.44011060  0.86734032     0.38070
C494        C  0.28307262  0.36231272  0.94638829     0.38060
C495        C  0.19610883  0.33293937  0.94218920     0.36490
C496        C  0.31321155  0.46657386  0.86981153     0.36490
N497        N  0.17623770  0.31075610  0.96055685    -0.38330
N498        N  0.33762319  0.99520735  0.85637609    -0.38330
N499        N  0.29534735  0.34871116  0.96373488    -0.37780
N500        N  0.22329755  0.46528198  0.85533846    -0.37780
C501        C  0.16037390  0.34505597  0.79009358    -0.04440
C502        C  0.17710066  0.32523553  0.80805483    -0.01560
C503        C  0.18525461  0.33491173  0.83677905     0.03430
C504        C  0.16340052  0.35041651  0.85151994    -0.04440
C505        C  0.15020920  0.37358324  0.83344410    -0.01550
C506        C  0.15525931  0.37545974  0.80388396     0.03420
C507        C  0.18820373  0.29553408  0.79812575     0.38070
C508        C  0.13782096  0.40203848  0.84338210     0.38060
C509        C  0.15853348  0.41176765  0.78897121     0.36490
C510        C  0.22545871  0.34145377  0.84703401     0.36490
N511        N  0.15934916  0.44125064  0.77960468    -0.38330
N512        N  0.25884312  0.34784071  0.85309692    -0.38330
N513        N  0.12906719  0.42658312  0.84885776    -0.37780
N514        N  0.19711217  0.27181805  0.79086702    -0.37780
C515        C  0.19667756  0.09557761  0.65603402    -0.04440
C516        C  0.22917583  0.12431591  0.67418435    -0.01560
C517        C  0.27238974  0.14328016  0.66703256     0.03430
C518        C  0.28460024  0.13900243  0.63930550    -0.04440
C519        C  0.24935511  0.11193240  0.62049647    -0.01550
C520        C  0.20720156  0.08747649  0.63013011     0.03420
C521        C  0.21818162  0.13566673  0.70013581     0.38070
C522        C  0.25176197  0.11077385  0.59037104     0.38060
C523        C  0.17371658  0.05418504  0.61271737     0.36490
C524        C  0.30308716  0.16592290  0.68947266     0.36490
N525        N  0.14722054  0.02768488  0.59892576    -0.38330
N526        N  0.32510473  0.18307710  0.70860542    -0.38330
N527        N  0.24924489  0.10779607  0.56618026    -0.37780
N528        N  0.20946549  0.14506653  0.72063728    -0.37780
C529        C  0.35240185  0.21310589  0.64247480    -0.04440
C530        C  0.38993502  0.23480245  0.66025368    -0.01560
C531        C  0.41197535  0.27903184  0.66301064     0.03430
C532        C  0.39241885  0.30147198  0.65507902    -0.04440
C533        C  0.35092804  0.27923454  0.64346811    -0.01550
C534        C  0.33118063  0.23581132  0.63669857     0.03420
C535        C  0.40471310  0.21329043  0.67886243     0.38070
C536        C  0.32857313  0.30116948  0.63808679     0.38060
C537        C  0.29025894  0.21628318  0.62203221     0.36490
C538        C  0.45546423  0.30144820  0.67411399     0.36490
N539        N  0.25778448  0.20167003  0.61028165    -0.38330
N540        N  0.49008676  0.31910659  0.68283005    -0.38330
N541        N  0.31074193  0.31864362  0.63384768    -0.37780
N542        N  0.41710784  0.19731536  0.69423224    -0.37780
C543        C  0.36092659  0.14733368  0.64198025    -0.04440
C544        C  0.34614076  0.11111091  0.66070932    -0.01560
C545        C  0.37260490  0.09536761  0.66770153     0.03430
C546        C  0.40821462  0.10692410  0.65155656    -0.04440
C547        C  0.42397978  0.14231421  0.63350819    -0.01550
C548        C  0.40315231  0.16478717  0.63106281     0.03420
C549        C  0.30364762  0.08615535  0.67177576     0.38070
C550        C  0.46112277  0.15524216  0.61669900     0.38060
C551        C  0.42656736  0.20642415  0.61769008     0.36490
C552        C  0.36476617  0.06909552  0.69275517     0.36490
N553        N  0.44735887  0.24037349  0.60844435    -0.38330
N554        N  0.35954044  0.04933253  0.71317507    -0.38330
N555        N  0.49047108  0.16539024  0.60309633    -0.37780
N556        N  0.27016346  0.06413582  0.68106950    -0.37780
C557        C  0.28986178  0.14695959  0.99396298    -0.04440
C558        C  0.26099855  0.10285958  0.00190832    -0.01560
C559        C  0.21680196  0.08122490  0.99557593     0.03430
C560        C  0.19956652  0.10131204  0.98029671    -0.04440
C561        C  0.22532365  0.14431559  0.97340425    -0.01550
C562        C  0.26910242  0.16766048  0.98117253     0.03420
C563        C  0.27496710  0.07648090  0.01493631     0.38070
C564        C  0.20563585  0.16515499  0.95912942     0.38060
C565        C  0.28851341  0.21304029  0.97760910     0.36490
C566        C  0.18844279  0.03738590  0.00470072     0.36490
N567        N  0.30037627  0.24862141  0.97442870    -0.38330
N568        N  0.16600377  0.50256904  0.01200810    -0.38330
N569        N  0.18986357  0.18164842  0.94799700    -0.37780
N570        N  0.28138473  0.05132370  0.52441555    -0.37780
C571        C  0.36694176  0.21841819  0.99274974    -0.04440
C572        C  0.36908345  0.23135803  0.96399683    -0.01560
C573        C  0.38698282  0.27469047  0.95682280     0.03430
C574        C  0.40529368  0.30593113  0.97796727    -0.04440
C575        C  0.41149789  0.29411527  0.50508967    -0.01550
C576        C  0.39615613  0.25130809  0.51148236     0.03420
C577        C  0.35045685  0.20071449  0.94162656     0.38070
C578        C  0.43730406  0.32623037  0.52575663     0.38060
C579        C  0.41925265  0.24300499  0.53326199     0.36490
C580        C  0.38285405  0.28603041  0.92792718     0.36490
N581        N  0.43909118  0.23650268  0.54947393    -0.38330
N582        N  0.37924741  0.29473709  0.90489318    -0.38330
N583        N  0.45790703  0.35173044  0.54225976    -0.37780
N584        N  0.33627355  0.17828411  0.92266716    -0.37780
C585        C  0.40750755  0.10584994  0.97982960    -0.04440
C586        C  0.36655702  0.09043321  0.96772916    -0.01560
C587        C  0.34504809  0.11238981  0.97141567     0.03430
C588        C  0.36415769  0.14994952  0.98811394    -0.04440
C589        C  0.40936119  0.16976701  0.49189673    -0.01550
C590        C  0.42817807  0.14572097  0.99258506     0.03420
C591        C  0.34678672  0.05258474  0.95080237     0.38070
C592        C  0.43887110  0.21335582  0.48323224     0.38060
C593        C  0.46834324  0.16262570  0.50784659     0.36490
C594        C  0.30641261  0.09829497  0.95491527     0.36490
N595        N  0.50013642  0.17643500  0.52034618    -0.38310
N596        N  0.27585951  0.08627487  0.94123168    -0.38330
N597        N  0.46345857  0.24757813  0.47570152    -0.37780
N598        N  0.33070746  0.02260314  0.93710392    -0.37780
C599        C  0.33930156  0.16706038  0.53565260    -0.04440
C600        C  0.34795511  0.14005035  0.55308197    -0.01560
C601        C  0.33869497  0.13512455  0.58224446     0.03430
C602        C  0.33844619  0.16804662  0.59720649    -0.04440
C603        C  0.34226002  0.20118839  0.57956753    -0.01550
C604        C  0.32930431  0.19288280  0.55139702     0.03420
C605        C  0.36353604  0.11454341  0.54309996     0.38070
C606        C  0.37147986  0.24565145  0.58555216     0.38060
C607        C  0.30990370  0.21532180  0.54023496     0.36490
C608        C  0.32571033  0.09421121  0.59535802     0.36490
N609        N  0.29413151  0.23449216  0.53481560    -0.38330
N610        N  0.31491004  0.06108761  0.60493636    -0.38330
N611        N  0.39542438  0.28147683  0.58900576    -0.37780
N612        N  0.37469130  0.09174167  0.53805422    -0.37780
C613        C  0.33991559  0.67007306  0.00208255    -0.01590
C614        C  0.33369489  0.66653056  0.13056346    -0.01590
C615        C  0.16085226  0.84693881  0.38540028    -0.01590
C616        C  0.15452486  0.83909277  0.25686794    -0.01590
C617        C  0.43047328  0.58291700  0.47738043     0.43350
N618        N  0.44412794  0.53353553  0.47637089     0.02240
C619        C  0.13825087  0.56187855  0.44332329    -0.05640
H620        H  0.07578784  0.62489195  0.36969110     0.07730
C621        C  0.45800347  0.97555083  0.34881722    -0.05990
Co622      Co  0.03717091  0.56862891  0.47110182     0.74180
N623        N  0.05979219  0.59535981  0.41068747    -0.25160
Co624      Co  0.05705084  0.53805498  0.40751363     0.74070
C625        C  0.48902062  0.50985066  0.33058960     0.43450
N626        N  0.40496110  0.94784764  0.41613406     0.01860
N627        N  0.01411368  0.51971991  0.37313379     0.01960
N628        N  0.12407351  0.58072941  0.48425090    -0.46010
H629        H  0.50173328  0.63450851  0.47326845     0.07720
N630        N  0.05319791  0.60713946  0.43487872     0.02250
N631        N  0.05156544  0.97901688  0.40586434     0.01990
C632        C  0.06302359  0.92798121  0.40556622     0.43590
N633        N  0.39858075  0.95906620  0.44063624    -0.24620
C634        C  0.03676752  0.53695054  0.03346336    -0.05540
N635        N  0.41252129  0.54034261  0.47807494    -0.45730
N636        N  0.08225356  0.97084604  0.40473035    -0.45950
C637        C  0.50563958  0.00117181  0.05095762     0.43370
N638        N  0.09160041  0.56662196  0.46621477     0.02240
N639        N  0.43515560  0.91729914  0.47030421    -0.24640
N640        N  0.48162691  0.56895234  0.47457040    -0.25140
N641        N  0.44295014  0.90720079  0.44589037     0.01870
H642        H  0.40956391  0.88123094  0.00878497     0.07760
H643        H  0.99162785  0.87793763  0.40955012     0.07800
N644        N  0.09925582  0.55578688  0.44196139    -0.25180
N645        N  0.47636740  0.98425160  0.37458106    -0.24800
N646        N  0.48221336  0.99288610  0.00819579     0.02240
C647        C  0.06889566  0.65987637  0.40661101     0.43640
C648        C  0.35990391  0.95279163  0.44091942    -0.06050
N649        N  0.01357075  0.94412539  0.40722556    -0.24800
H650        H  0.42877885  0.94662085  0.34307486     0.07780
N651        N  0.05885106  0.64537269  0.43338148    -0.46020
H652        H  0.34499326  0.95644162  0.45887150     0.07770
C653        C  0.42130378  0.85111587  0.47103219     0.43470
C654        C  0.47634111  0.60172879  0.47489439    -0.05550
Co655      Co  0.43960818  0.97528729  0.47430669     0.73820
N656        N  0.37097919  0.93212779  0.39936813    -0.45740
C657        C  0.15420771  0.57743484  0.47154993     0.43740
N658        N  0.47263211  0.97561725  0.03377573    -0.45730
Co659      Co  0.45894030  0.94558083  0.41061870     0.73890
C660        C  0.01753619  0.91048698  0.40743745    -0.06050
C661        C  0.06918533  0.62613520  0.39145553    -0.05620
N662        N  0.01938606  0.52913732  0.00736535    -0.25140
N663        N  0.02307848  0.53568566  0.34714392    -0.45910
H664        H  0.15435860  0.55820308  0.42612225     0.07740
C665        C  0.42100347  0.88354618  0.48777844    -0.06030
Cl666      Cl  0.49834408  0.50692463  0.44090418    -0.49030
C667        C  0.34195580  0.93505924  0.41382306     0.43500
H668        H  0.06543441  0.56590311  0.03990901     0.07710
N669        N  0.43523655  0.86838466  0.44554255    -0.45740
C670        C  0.33196555  0.91970159  0.21472341     0.43350
N671        N  0.39094924  0.95006159  0.19239009     0.02240
C672        C  0.08389003  0.97114907  0.22678573    -0.05640
H673        H  0.05623122  0.56679010  0.28818399     0.07730
C674        C  0.06205182  0.64569336  0.19130138    -0.05990
Co675      Co  0.45876666  0.94300433  0.22361600     0.74180
N676        N  0.01720374  0.52092333  0.25668886    -0.25160
Co677      Co  0.05715962  0.53772774  0.22219210     0.74070
C678        C  0.08235114  0.66154286  0.21872036     0.43450
N679        N  0.47344071  0.56254036  0.15438208     0.01860
N680        N  0.06120340  0.59557612  0.21618625     0.01960
N681        N  0.01941798  0.91027602  0.22834112    -0.46010
H682        H  0.36312029  0.90737041  0.25353066     0.07720
N683        N  0.47943224  0.98526247  0.25751074     0.02250
N684        N  0.09612281  0.55375673  0.18780821     0.01990
C685        C  0.15132190  0.57591873  0.16305691     0.43590
N686        N  0.43630698  0.52626979  0.15468014    -0.24620
C687        C  0.43065964  0.86267564  0.19073018    -0.05540
N688        N  0.35026502  0.93806621  0.19001747    -0.45730
N689        N  0.13516360  0.56113877  0.18872983    -0.45950
C690        C  0.41340970  0.84664201  0.16294929     0.43370
N691        N  0.01575077  0.94386064  0.22725065     0.02240
N692        N  0.47306344  0.98634368  0.12424620    -0.24640
N693        N  0.40095963  0.94070614  0.21732341    -0.25140
N694        N  0.01023328  0.52257977  0.12399483     0.01870
H695        H  0.43653019  0.94094338  0.09186663     0.07760
H696        H  0.12106629  0.59099662  0.12512538     0.07800
N697        N  0.05299200  0.97982465  0.22630675    -0.25180
N698        N  0.05073345  0.60500882  0.19152554    -0.24800
N699        N  0.42992076  0.91115173  0.16488025     0.02240
C700        C  0.48998434  0.51013688  0.29941969     0.43640
C701        C  0.40532274  0.53461845  0.15369936    -0.06050
N702        N  0.08593575  0.56363528  0.16320315    -0.24800
H703        H  0.05899173  0.66255145  0.17341688     0.07780
N704        N  0.46243916  0.97725789  0.28287482    -0.46020
H705        H  0.37156747  0.51132401  0.15404025     0.07770
C706        C  0.50271009  0.99922145  0.08201325     0.43470
C707        C  0.36576540  0.92175397  0.23300730    -0.05550
Co708      Co  0.43218890  0.96823677  0.15855696     0.73820
N709        N  0.46969127  0.59601644  0.15330592    -0.45740
C710        C  0.06148345  0.92497120  0.22788837     0.43740
N711        N  0.41306939  0.87806401  0.14801004    -0.45730
Co712      Co  0.03011791  0.56374136  0.15787199     0.73890
C713        C  0.11887551  0.57782287  0.14602104    -0.06050
C714        C  0.02628048  0.53896605  0.28203418    -0.05620
N715        N  0.43980912  0.90245385  0.19001793    -0.25140
N716        N  0.08047776  0.62860707  0.23304124    -0.45910
H717        H  0.11769245  0.99420104  0.22595637     0.07740
C718        C  0.46569585  0.96913242  0.09865282    -0.06030
Cl719      Cl  0.49440547  0.50323916  0.19065144    -0.49030
C720        C  0.42761425  0.58081306  0.15292650     0.43500
H721        H  0.43285952  0.84616520  0.20915651     0.07710
N722        N  0.02863894  0.53172681  0.09911329    -0.45740
C723        C  0.10118714  0.70530944  0.22964619    -0.04440
C724        C  0.12192044  0.74113603  0.21171185    -0.01560
C725        C  0.12563463  0.77897552  0.21961499     0.03430
C726        C  0.13034848  0.78971404  0.24852549    -0.04440
C727        C  0.10808136  0.75266825  0.26706874    -0.01550
C728        C  0.09372746  0.71130022  0.25736352     0.03420
C729        C  0.13287112  0.73807661  0.18331329     0.38070
C730        C  0.09747545  0.75350806  0.29595012     0.38060
C731        C  0.07065540  0.67460302  0.27609263     0.36490
C732        C  0.09673929  0.78593087  0.20266966     0.36490
N733        N  0.05246924  0.64570752  0.29117568    -0.38330
N734        N  0.07213459  0.78930257  0.18914105    -0.38330
N735        N  0.08925315  0.75094566  0.31946250    -0.37780
N736        N  0.14174574  0.73591091  0.16060111    -0.37780
C737        C  0.12364651  0.85412343  0.24418142    -0.04440
C738        C  0.08554454  0.84396318  0.25842399    -0.01560
C739        C  0.06639351  0.86792243  0.25349647     0.03430
C740        C  0.08025250  0.89817769  0.23166063    -0.04440
C741        C  0.11049540  0.90119630  0.21302972    -0.01550
C742        C  0.13006808  0.87743130  0.21812353     0.03420
C743        C  0.06448616  0.80985964  0.27874311     0.38070
C744        C  0.12098417  0.92829583  0.18816803     0.38060
C745        C  0.15338515  0.87491720  0.19500425     0.36490
C746        C  0.03415461  0.86345090  0.27249320     0.36490
N747        N  0.17134580  0.87293875  0.17622446    -0.38330
N748        N  0.00883991  0.86016457  0.28775758    -0.38330
N749        N  0.12946874  0.94995998  0.16837115    -0.37780
N750        N  0.04264415  0.78387720  0.29478695    -0.37780
C751        C  0.20341021  0.86639152  0.24571638    -0.04440
C752        C  0.22512820  0.90664042  0.23064126    -0.01560
C753        C  0.26366213  0.91997262  0.21618391     0.03430
C754        C  0.28540536  0.89850747  0.22082359    -0.04440
C755        C  0.26457784  0.86096699  0.23715515    -0.01550
C756        C  0.23371423  0.85637101  0.25556463     0.03420
C757        C  0.21541339  0.93918689  0.23366314     0.38070
C758        C  0.28217711  0.83457096  0.24151766     0.38060
C759        C  0.25685887  0.87953297  0.28067230     0.36490
C760        C  0.27949394  0.95449051  0.19579578     0.36490
N761        N  0.27685064  0.89997419  0.29957620    -0.38330
N762        N  0.29044530  0.48068222  0.17858591    -0.38330
N763        N  0.29613504  0.81333010  0.24497291    -0.37780
N764        N  0.21081624  0.96760122  0.23413073    -0.37780
C765        C  0.08888958  0.70602896  0.39906058    -0.04440
C766        C  0.07751187  0.73074797  0.41395526    -0.01560
C767        C  0.10341311  0.77564968  0.41347286     0.03430
C768        C  0.13911014  0.79763880  0.39499480    -0.04440
C769        C  0.15363332  0.77147730  0.38530621    -0.01550
C770        C  0.12563837  0.72744887  0.38258501     0.03420
C771        C  0.03762623  0.71018192  0.42885984     0.38070
C772        C  0.19652257  0.78208781  0.39197453     0.38060
C773        C  0.13941062  0.70474160  0.36616519     0.36490
C774        C  0.09539301  0.79748456  0.43489603     0.36490
N775        N  0.15136614  0.68771430  0.35283697    -0.38330
N776        N  0.08862150  0.81404878  0.45233879    -0.38330
N777        N  0.22943461  0.78727103  0.39806797    -0.37780
N778        N  0.50555422  0.69456200  0.44032849    -0.37780
C779        C  0.08504961  0.90400600  0.40460697    -0.04440
C780        C  0.06611389  0.86481651  0.39072235    -0.01560
C781        C  0.08952541  0.84540812  0.38646301     0.03430
C782        C  0.13308985  0.86472211  0.39603593    -0.04440
C783        C  0.14850615  0.90029926  0.41438930    -0.01550
C784        C  0.12563464  0.92064182  0.41714994     0.03420
C785        C  0.02415614  0.84625809  0.37761763     0.38070
C786        C  0.18612408  0.91604402  0.43233987     0.38060
C787        C  0.14442817  0.95919979  0.43334051     0.36490
C788        C  0.06878554  0.80685290  0.37018044     0.36490
N789        N  0.16052999  0.49015441  0.44605839    -0.38330
N790        N  0.05038806  0.77548278  0.35798718    -0.38330
N791        N  0.21571689  0.93009148  0.44717989    -0.37780
N792        N  0.49087634  0.83090413  0.36688975    -0.37780
C793        C  0.20804392  0.87422128  0.39663605    -0.04440
C794        C  0.23859973  0.91347320  0.38298450    -0.01560
C795        C  0.28236385  0.93036951  0.38670949     0.03430
C796        C  0.29662428  0.91287963  0.40708468    -0.04440
C797        C  0.26756117  0.87932534  0.42450460    -0.01550
C798        C  0.22359632  0.86140093  0.42031185     0.03420
C799        C  0.22729661  0.94011778  0.36735642     0.38070
C800        C  0.28293223  0.86235394  0.44645156     0.38060
C801        C  0.19596323  0.83295013  0.44220904     0.36490
C802        C  0.31310577  0.96659451  0.36985247     0.36490
N803        N  0.17607442  0.81076402  0.46057046    -0.38330
N804        N  0.33772537  0.49518274  0.35633075    -0.38330
N805        N  0.29519615  0.84876328  0.46381322    -0.37780
N806        N  0.22318727  0.96528552  0.35534954    -0.37780
C807        C  0.16032090  0.84506115  0.29009529    -0.04440
C808        C  0.17705874  0.82525898  0.30806442    -0.01560
C809        C  0.18519839  0.83493920  0.33678826     0.03430
C810        C  0.16332002  0.85042380  0.35152152    -0.04440
C811        C  0.15012084  0.87357780  0.33344028    -0.01550
C812        C  0.15517598  0.87545067  0.30388024     0.03420
C813        C  0.18817715  0.79556285  0.29814785     0.38070
C814        C  0.13772273  0.90202729  0.34337458     0.38060
C815        C  0.15843254  0.91174799  0.28896375     0.36490
C816        C  0.22540764  0.84150390  0.34705190     0.36490
N817        N  0.15923345  0.94122204  0.27959400    -0.38330
N818        N  0.25879581  0.84790701  0.35312236    -0.38330
N819        N  0.12896148  0.92656693  0.34884869    -0.37780
N820        N  0.19709786  0.77185093  0.29090030    -0.37780
C821        C  0.19671800  0.59558621  0.15602295    -0.04440
C822        C  0.22921398  0.62431780  0.17417729    -0.01560
C823        C  0.27242827  0.64327949  0.16702909     0.03430
C824        C  0.28464282  0.63900640  0.13930239    -0.04440
C825        C  0.24940144  0.61194319  0.12048911    -0.01550
C826        C  0.20724477  0.58749099  0.13011787     0.03420
C827        C  0.21821740  0.63566560  0.20012914     0.38070
C828        C  0.25181785  0.61078970  0.09036411     0.38060
C829        C  0.17376010  0.55420998  0.11269912     0.36490
C830        C  0.30312233  0.66591447  0.18947251     0.36490
N831        N  0.14726426  0.52771820  0.09890257    -0.38330
N832        N  0.32513650  0.68306135  0.20860805    -0.38330
N833        N  0.24931029  0.60781835  0.06617295    -0.37780
N834        N  0.20949944  0.64506299  0.22063089    -0.37780
C835        C  0.35243193  0.71311116  0.14247522    -0.04440
C836        C  0.38996135  0.73481584  0.16025629    -0.01560
C837        C  0.41198790  0.77904429  0.16301475     0.03430
C838        C  0.39242042  0.80147291  0.15507970    -0.04440
C839        C  0.35093398  0.77922681  0.14346320    -0.01550
C840        C  0.33120127  0.73580636  0.13669252     0.03420
C841        C  0.40474952  0.71331228  0.17886451     0.38070
C842        C  0.32856847  0.80115032  0.13807697     0.38060
C843        C  0.29028644  0.71627245  0.12201682     0.36490
C844        C  0.45547437  0.80147211  0.17412253     0.36490
N845        N  0.25781758  0.70165675  0.11025869    -0.38330
N846        N  0.49009510  0.81913944  0.18284207    -0.38330
N847        N  0.31072882  0.81861515  0.13383387    -0.37780
N848        N  0.41715174  0.69734366  0.19423396    -0.37780
C849        C  0.36097085  0.64734497  0.14198697    -0.04440
C850        C  0.34618088  0.61111837  0.16071329    -0.01560
C851        C  0.37264492  0.59537626  0.16770854     0.03430
C852        C  0.40825881  0.60693646  0.15156720    -0.04440
C853        C  0.42402708  0.64232880  0.13352068    -0.01550
C854        C  0.40319963  0.66480150  0.13107420     0.03420
C855        C  0.30368248  0.58615411  0.17177079     0.38070
C856        C  0.46117198  0.65525806  0.11671310     0.38060
C857        C  0.42661692  0.70643938  0.11770298     0.36490
C858        C  0.36479804  0.56909715  0.19275959     0.36490
N859        N  0.44741185  0.74038841  0.10845757    -0.38330
N860        N  0.35956483  0.54932807  0.21317750    -0.38330
N861        N  0.49052149  0.66540690  0.10311150    -0.37780
N862        N  0.27019422  0.56412806  0.18105716    -0.37780
C863        C  0.28994135  0.64697679  0.49397162    -0.04440
C864        C  0.26108383  0.60287425  0.50191446    -0.01560
C865        C  0.21688719  0.58123397  0.49558195     0.03430
C866        C  0.19964129  0.60132827  0.48032404    -0.04440
C867        C  0.22538938  0.64433631  0.47344322    -0.01550
C868        C  0.26917534  0.66767811  0.48119196     0.03420
C869        C  0.27505909  0.57649910  0.51493950     0.38070
C870        C  0.20568572  0.66518120  0.45919733     0.38060
C871        C  0.28858909  0.71305644  0.47761691     0.36490
C872        C  0.18853836  0.53738129  0.50468377     0.36490
N873        N  0.30044735  0.74863523  0.47442833    -0.38330
N874        N  0.16589990  0.00258570  0.51204547    -0.38330
N875        N  0.18990073  0.68167915  0.44808942    -0.37780
N876        N  0.28148311  0.55134498  0.02441608    -0.37780
C877        C  0.36701623  0.71843622  0.49274733    -0.04440
C878        C  0.36915367  0.73136633  0.46399269    -0.01560
C879        C  0.38702902  0.77469384  0.45681377     0.03430
C880        C  0.40531002  0.80593868  0.47795711    -0.04440
C881        C  0.41153223  0.79413814  0.00508006    -0.01550
C882        C  0.39621878  0.75133757  0.01147677     0.03420
C883        C  0.35053792  0.70071704  0.44162562     0.38070
C884        C  0.43732392  0.82626317  0.02574442     0.38060
C885        C  0.41932342  0.74305622  0.03326251     0.36490
C886        C  0.38289802  0.78601892  0.42791451     0.36490
N887        N  0.43916877  0.73657269  0.04948051    -0.38330
N888        N  0.37928920  0.79471223  0.40487744    -0.38330
N889        N  0.45791541  0.85177060  0.04224609    -0.37780
N890        N  0.33636548  0.67828590  0.42266610    -0.37780
C891        C  0.40758372  0.60586441  0.47982991    -0.04440
C892        C  0.36663327  0.59045029  0.46773101    -0.01560
C893        C  0.34512651  0.61240843  0.47141957     0.03430
C894        C  0.36423707  0.64996717  0.48811974    -0.04440
C895        C  0.40943981  0.66978151  0.99190443    -0.01550
C896        C  0.42825601  0.64573418  0.49258767     0.03420
C897        C  0.34686088  0.55260233  0.45080326     0.38070
C898        C  0.43895329  0.71337682  0.98325559     0.38060
C899        C  0.46842046  0.66263412  0.00784937     0.36490
C900        C  0.30649043  0.59831406  0.45491980     0.36490
N901        N  0.50021280  0.67643936  0.02034948    -0.38310
N902        N  0.27593675  0.58629369  0.44123678    -0.38330
N903        N  0.46354470  0.74760394  0.97573541    -0.37780
N904        N  0.33078126  0.52262089  0.43710456    -0.37780
C905        C  0.33938477  0.66708751  0.03565680    -0.04440
C906        C  0.34803158  0.64007434  0.05308815    -0.01560
C907        C  0.33875571  0.63514053  0.08224826     0.03430
C908        C  0.33850105  0.66805952  0.09720961    -0.04440
C909        C  0.34232924  0.70120803  0.07957151    -0.01550
C910        C  0.32938369  0.69290890  0.05139953     0.03420
C911        C  0.36362436  0.61457516  0.04311081     0.38070
C912        C  0.37154750  0.74566970  0.08556216     0.38060
C913        C  0.30999156  0.71535539  0.04023623     0.36490
C914        C  0.32576547  0.59422483  0.09535991     0.36490
N915        N  0.29422863  0.73453459  0.03481733    -0.38330
N916        N  0.31496070  0.56109948  0.10493697    -0.38330
N917        N  0.39549080  0.78149416  0.08902035    -0.37780
N918        N  0.37478946  0.59178027  0.03806833    -0.37780
C919        C  0.33991561  0.67007306  0.50208254    -0.01590
C920        C  0.33369486  0.66653054  0.63056346    -0.01590
C921        C  0.16085215  0.84693880  0.88540027    -0.01590
C922        C  0.15452511  0.83909288  0.75686793    -0.01590
C923        C  0.43047326  0.58291702  0.97738043     0.43350
N924        N  0.44412793  0.53353554  0.97637087     0.02240
C925        C  0.13825085  0.56187856  0.94332329    -0.05640
H926        H  0.07578767  0.62489184  0.86969105     0.07730
C927        C  0.45800338  0.97555082  0.84881718    -0.05990
Co928      Co  0.03717089  0.56862894  0.97110180     0.74180
N929        N  0.05979216  0.59535981  0.91068745    -0.25160
Co930      Co  0.05705082  0.53805499  0.90751362     0.74070
C931        C  0.48902060  0.50985064  0.83058961     0.43450
N932        N  0.40496094  0.94784766  0.91613401     0.01860
N933        N  0.01411367  0.51971990  0.87313379     0.01960
N934        N  0.12407349  0.58072944  0.98425089    -0.46010
H935        H  0.50173326  0.63450852  0.97326845     0.07720
N936        N  0.05319789  0.60713948  0.93487869     0.02250
N937        N  0.05156527  0.97901678  0.90586434     0.01990
C938        C  0.06302339  0.92798108  0.90556622     0.43590
N939        N  0.39858059  0.95906622  0.94063619    -0.24620
C940        C  0.03676752  0.53695052  0.53346338    -0.05540
N941        N  0.41252127  0.54034262  0.97807492    -0.45730
N942        N  0.08225338  0.97084591  0.90473037    -0.45950
C943        C  0.50563984  0.00117189  0.55095762     0.43370
N944        N  0.09160040  0.56662199  0.96621476     0.02240
N945        N  0.43515538  0.91729909  0.97030416    -0.24640
N946        N  0.48162690  0.56895236  0.97457038    -0.25140
N947        N  0.44294992  0.90720074  0.94589032     0.01870
H948        H  0.40956408  0.88123098  0.50878500     0.07760
H949        H  0.99162763  0.87793753  0.90955007     0.07800
N950        N  0.09925581  0.55578690  0.94196138    -0.25180
N951        N  0.47636728  0.98425158  0.87458103    -0.24800
N952        N  0.48221358  0.99288618  0.50819581     0.02240
C953        C  0.06889554  0.65987633  0.90661094     0.43640
C954        C  0.35990379  0.95279177  0.94091933    -0.06050
N955        N  0.01357057  0.94412530  0.90722554    -0.24800
H956        H  0.42877876  0.94662085  0.84307481     0.07780
N957        N  0.05885099  0.64537268  0.93338142    -0.46020
H958        H  0.34499313  0.95644177  0.95887140     0.07770
C959        C  0.42130360  0.85111583  0.97103216     0.43470
C960        C  0.47634109  0.60172881  0.97489438    -0.05550
Co961      Co  0.43960799  0.97528725  0.97430665     0.73820
N962        N  0.37097907  0.93212792  0.89936804    -0.45740
C963        C  0.15420769  0.57743485  0.97154993     0.43740
N964        N  0.47263237  0.97561732  0.53377574    -0.45730
Co965      Co  0.45894012  0.94558080  0.91061867     0.73890
C966        C  0.01753598  0.91048688  0.90743742    -0.06050
C967        C  0.06918524  0.62613515  0.89145548    -0.05620
N968        N  0.01938607  0.52913729  0.50736537    -0.25140
N969        N  0.02307846  0.53568564  0.84714391    -0.45910
H970        H  0.15435858  0.55820308  0.92612226     0.07740
C971        C  0.42100328  0.88354614  0.98777840    -0.06030
Cl972      Cl  0.49834408  0.50692464  0.94090417    -0.49030
C973        C  0.34195571  0.93505950  0.91382294     0.43500
H974        H  0.06543440  0.56590310  0.53990903     0.07710
N975        N  0.43523636  0.86838462  0.94554251    -0.45740
C976        C  0.33196563  0.91970156  0.71472324     0.43350
N977        N  0.39094939  0.95006163  0.69239001     0.02240
C978        C  0.08389014  0.97114909  0.72678582    -0.05640
H979        H  0.05623120  0.56679007  0.78818400     0.07730
C980        C  0.06205177  0.64569333  0.69130146    -0.05990
Co981      Co  0.45876675  0.94300432  0.72361597     0.74180
N982        N  0.01720374  0.52092329  0.75668887    -0.25160
Co983      Co  0.05715961  0.53772771  0.72219212     0.74070
C984        C  0.08235112  0.66154282  0.71872044     0.43450
N985        N  0.47344066  0.56254033  0.65438213     0.01860
N986        N  0.06120338  0.59557608  0.71618629     0.01960
N987        N  0.01941809  0.91027602  0.72834117    -0.46010
H988        H  0.36312022  0.90737022  0.75353050     0.07720
N989        N  0.47943228  0.98526246  0.75751071     0.02250
N990        N  0.09612279  0.55375672  0.68780823     0.01990
C991        C  0.15132188  0.57591875  0.66305691     0.43590
N992        N  0.43630694  0.52626975  0.65468017    -0.24620
C993        C  0.43065976  0.86267565  0.69073015    -0.05540
N994        N  0.35026517  0.93806625  0.69001733    -0.45730
N995        N  0.13516359  0.56113877  0.68872983    -0.45950
C996        C  0.41340982  0.84664202  0.66294926     0.43370
N997        N  0.01575087  0.94386064  0.72725067     0.02240
N998        N  0.47306368  0.98634373  0.62424618    -0.24640
N999        N  0.40095971  0.94070611  0.71732332    -0.25140
N1000       N  0.01023325  0.52257977  0.62399485     0.01870
H1001       H  0.43653045  0.94094343  0.59186661     0.07760
H1002       H  0.12106625  0.59099665  0.62512540     0.07800
N1003       N  0.05299209  0.97982465  0.72630680    -0.25180
N1004       N  0.05073341  0.60500879  0.69152560    -0.24800
N1005       N  0.42992093  0.91115176  0.66488021     0.02240
C1006       C  0.48998432  0.51013685  0.79941970     0.43640
C1007       C  0.40532269  0.53461840  0.65369939    -0.06050
N1008       N  0.08593572  0.56363529  0.66320318    -0.24800
H1009       H  0.05899167  0.66255143  0.67341697     0.07780
N1010       N  0.46243917  0.97725788  0.78287478    -0.46020
H1011       H  0.37156742  0.51132395  0.65404027     0.07770
C1012       C  0.50271036  0.99922151  0.58201325     0.43470
C1013       C  0.36576541  0.92175388  0.73300716    -0.05550
Co1014     Co  0.43218909  0.96823681  0.65855691     0.73820
N1015       N  0.46969121  0.59601640  0.65330597    -0.45740
C1016       C  0.06148357  0.92497121  0.72788847     0.43740
N1017       N  0.41306955  0.87806403  0.64801000    -0.45730
Co1018     Co  0.03011787  0.56374135  0.65787202     0.73890
C1019       C  0.11887548  0.57782289  0.64602106    -0.06050
C1020       C  0.02628047  0.53896602  0.78203419    -0.05620
N1021       N  0.43980926  0.90245386  0.69001789    -0.25140
N1022       N  0.08047776  0.62860702  0.73304129    -0.45910
H1023       H  0.11769255  0.99420107  0.72595649     0.07740
C1024       C  0.46569610  0.96913247  0.59865280    -0.06030
Cl1025     Cl  0.49440546  0.50323914  0.69065146    -0.49030
C1026       C  0.42761419  0.58081301  0.65292654     0.43500
H1027       H  0.43285959  0.84616519  0.70915649     0.07710
N1028       N  0.02863891  0.53172681  0.59911331    -0.45740
C1029       C  0.10118727  0.70530944  0.72964625    -0.04440
C1030       C  0.12192051  0.74113598  0.71171187    -0.01560
C1031       C  0.12563488  0.77897556  0.71961502     0.03430
C1032       C  0.13034874  0.78971413  0.74852552    -0.04440
C1033       C  0.10808175  0.75266837  0.76706881    -0.01550
C1034       C  0.09372779  0.71130032  0.75736362     0.03420
C1035       C  0.13287108  0.73807647  0.68331330     0.38070
C1036       C  0.09747592  0.75350826  0.79595020     0.38060
C1037       C  0.07065588  0.67460317  0.77609279     0.36490
C1038       C  0.09673992  0.78593129  0.70266955     0.36490
N1039       N  0.05246984  0.64570772  0.79117589    -0.38330
N1040       N  0.07213547  0.78930322  0.68914080    -0.38330
N1041       N  0.08925366  0.75094596  0.81946259    -0.37780
N1042       N  0.14174560  0.73591071  0.66060110    -0.37780
C1043       C  0.12364676  0.85412351  0.74418138    -0.04440
C1044       C  0.08554464  0.84396303  0.75842384    -0.01560
C1045       C  0.06639352  0.86792221  0.75349635     0.03430
C1046       C  0.08025265  0.89817771  0.73166066    -0.04440
C1047       C  0.11049577  0.90119661  0.71302982    -0.01550
C1048       C  0.13006850  0.87743164  0.71812358     0.03420
C1049       C  0.06448617  0.80985930  0.77874283     0.38070
C1050       C  0.12098470  0.92829637  0.68816824     0.38060
C1051       C  0.15338566  0.87491772  0.69500430     0.36490
C1052       C  0.03415440  0.86345038  0.77249300     0.36490
N1053       N  0.17134639  0.87293941  0.67622449    -0.38330
N1054       N  0.00883952  0.86016381  0.78775731    -0.38330
N1055       N  0.12946940  0.94996071  0.66837145    -0.37780
N1056       N  0.04264406  0.78387666  0.79478654    -0.37780
C1057       C  0.20341042  0.86639154  0.74571633    -0.04440
C1058       C  0.22512851  0.90664060  0.73064141    -0.01560
C1059       C  0.26366237  0.91997281  0.71618397     0.03430
C1060       C  0.28540543  0.89850744  0.72082336    -0.04440
C1061       C  0.26457777  0.86096674  0.73715470    -0.01550
C1062       C  0.23371433  0.85637073  0.75556434     0.03420
C1063       C  0.21541379  0.93918709  0.73366348     0.38070
C1064       C  0.28217690  0.83457053  0.74151688     0.38060
C1065       C  0.25685927  0.87953253  0.78067199     0.36490
C1066       C  0.27949423  0.95449088  0.69579598     0.36490
N1067       N  0.27685134  0.89997366  0.79957585    -0.38330
N1068       N  0.29044523  0.48068203  0.67858581    -0.38330
N1069       N  0.29613472  0.81332954  0.74497187    -0.37780
N1070       N  0.21081675  0.96760148  0.73413122    -0.37780
C1071       C  0.08888938  0.70602890  0.89906046    -0.04440
C1072       C  0.07751179  0.73074794  0.91395523    -0.01560
C1073       C  0.10341306  0.77564965  0.91347281     0.03430
C1074       C  0.13910999  0.79763876  0.89499468    -0.04440
C1075       C  0.15363302  0.77147721  0.88530591    -0.01550
C1076       C  0.12563800  0.72744879  0.88258473     0.03420
C1077       C  0.03762622  0.71018194  0.92885988     0.38070
C1078       C  0.19652231  0.78208767  0.89197397     0.38060
C1079       C  0.13941001  0.70474150  0.86616471     0.36490
C1080       C  0.09539314  0.79748454  0.93489607     0.36490
N1081       N  0.15136534  0.68771421  0.85283631    -0.38330
N1082       N  0.08862178  0.81404877  0.95233892    -0.38330
N1083       N  0.22943437  0.78727081  0.89806722    -0.37780
N1084       N  0.50555427  0.69456206  0.94032860    -0.37780
C1085       C  0.08504939  0.90400586  0.90460698    -0.04440
C1086       C  0.06611367  0.86481636  0.89072235    -0.01560
C1087       C  0.08952521  0.84540800  0.88646297     0.03430
C1088       C  0.13308963  0.86472199  0.89603592    -0.04440
C1089       C  0.14850581  0.90029895  0.91438942    -0.01550
C1090       C  0.12563438  0.92064161  0.91715000     0.03420
C1091       C  0.02415592  0.84625794  0.87761762     0.38070
C1092       C  0.18612338  0.91604325  0.93234029     0.38060
C1093       C  0.14442794  0.95919958  0.93334057     0.36490
C1094       C  0.06878541  0.80685285  0.87018035     0.36490
N1095       N  0.16053002  0.49015444  0.94605836    -0.38330
N1096       N  0.05038799  0.77548279  0.85798700    -0.38330
N1097       N  0.21571591  0.93009028  0.94718055    -0.37780
N1098       N  0.49087612  0.83090398  0.86688974    -0.37780
C1099       C  0.20804375  0.87422129  0.89663613    -0.04440
C1100       C  0.23859940  0.91347351  0.88298482    -0.01560
C1101       C  0.28236358  0.93037001  0.88670974     0.03430
C1102       C  0.29662417  0.91287983  0.90708459    -0.04440
C1103       C  0.26756119  0.87932515  0.92450433    -0.01550
C1104       C  0.22359630  0.86140065  0.92031169     0.03420
C1105       C  0.22729601  0.94011813  0.86735708     0.38070
C1106       C  0.28293243  0.86235352  0.94645101     0.38060
C1107       C  0.19596333  0.83294951  0.94220880     0.36490
C1108       C  0.31310536  0.96659546  0.86985299     0.36490
N1109       N  0.17607459  0.81076311  0.96057013    -0.38330
N1110       N  0.33772535  0.49518267  0.85633071    -0.38330
N1111       N  0.29519650  0.84876268  0.96381243    -0.37780
N1112       N  0.22318641  0.96528592  0.85535051    -0.37780
C1113       C  0.16032118  0.84506137  0.79009528    -0.04440
C1114       C  0.17705915  0.82525937  0.80806445    -0.01560
C1115       C  0.18519873  0.83493965  0.83678828     0.03430
C1116       C  0.16332011  0.85042399  0.85152151    -0.04440
C1117       C  0.15012081  0.87357786  0.83344025    -0.01550
C1118       C  0.15517601  0.87545075  0.80388021     0.03420
C1119       C  0.18817754  0.79556318  0.79814799     0.38070
C1120       C  0.13772242  0.90202714  0.84337452     0.38060
C1121       C  0.15843234  0.91174797  0.78896372     0.36490
C1122       C  0.22540812  0.84150472  0.84705194     0.36490
N1123       N  0.15923303  0.94122191  0.77959398    -0.38330
N1124       N  0.25879636  0.84790807  0.85312245    -0.38330
N1125       N  0.12896092  0.92656661  0.84884859    -0.37780
N1126       N  0.19709824  0.77185120  0.79090054    -0.37780
C1127       C  0.19671798  0.59558624  0.65602294    -0.04440
C1128       C  0.22921396  0.62431782  0.67417728    -0.01560
C1129       C  0.27242825  0.64327950  0.66702908     0.03430
C1130       C  0.28464279  0.63900641  0.63930238    -0.04440
C1131       C  0.24940141  0.61194320  0.62048910    -0.01550
C1132       C  0.20724474  0.58749102  0.63011786     0.03420
C1133       C  0.21821738  0.63566562  0.70012913     0.38070
C1134       C  0.25181782  0.61078970  0.59036410     0.38060
C1135       C  0.17376006  0.55421002  0.61269910     0.36490
C1136       C  0.30312230  0.66591447  0.68947250     0.36490
N1137       N  0.14726421  0.52771825  0.59890255    -0.38330
N1138       N  0.32513647  0.68306134  0.70860804    -0.38330
N1139       N  0.24931027  0.60781833  0.56617294    -0.37780
N1140       N  0.20949943  0.64506301  0.72063089    -0.37780
C1141       C  0.35243193  0.71311114  0.64247522    -0.04440
C1142       C  0.38996135  0.73481580  0.66025629    -0.01560
C1143       C  0.41198794  0.77904426  0.66301474     0.03430
C1144       C  0.39242050  0.80147291  0.65507968    -0.04440
C1145       C  0.35093405  0.77922683  0.64346318    -0.01550
C1146       C  0.33120130  0.73580638  0.63669251     0.03420
C1147       C  0.40474948  0.71331222  0.67886452     0.38070
C1148       C  0.32856857  0.80115037  0.63807696     0.38060
C1149       C  0.29028647  0.71627249  0.62201682     0.36490
C1150       C  0.45547441  0.80147204  0.67412252     0.36490
N1151       N  0.25781761  0.70165681  0.61025870    -0.38330
N1152       N  0.49009514  0.81913935  0.68284206    -0.38330
N1153       N  0.31072895  0.81861524  0.63383386    -0.37780
N1154       N  0.41715167  0.69734358  0.69423397    -0.37780
C1155       C  0.36097079  0.64734493  0.64198697    -0.04440
C1156       C  0.34618080  0.61111831  0.66071328    -0.01560
C1157       C  0.37264482  0.59537618  0.66770853     0.03430
C1158       C  0.40825873  0.60693640  0.65156722    -0.04440
C1159       C  0.42402702  0.64232874  0.63352070    -0.01550
C1160       C  0.40319958  0.66480144  0.63107421     0.03420
C1161       C  0.30368238  0.58615405  0.67177076     0.38070
C1162       C  0.46117193  0.65525799  0.61671313     0.38060
C1163       C  0.42661688  0.70643932  0.61770298     0.36490
C1164       C  0.36479788  0.56909702  0.69275958     0.36490
N1165       N  0.44741183  0.74038835  0.60845758    -0.38330
N1166       N  0.35956463  0.54932791  0.71317747    -0.38330
N1167       N  0.49052145  0.66540683  0.60311154    -0.37780
N1168       N  0.27019411  0.56412801  0.68105711    -0.37780
C1169       C  0.28994132  0.64697680  0.99397163    -0.04440
C1170       C  0.26108380  0.60287426  0.00191447    -0.01560
C1171       C  0.21688717  0.58123398  0.99558195     0.03430
C1172       C  0.19964127  0.60132828  0.98032404    -0.04440
C1173       C  0.22538936  0.64433632  0.97344323    -0.01550
C1174       C  0.26917531  0.66767812  0.98119198     0.03420
C1175       C  0.27505906  0.57649910  0.01493951     0.38070
C1176       C  0.20568570  0.66518122  0.95919736     0.38060
C1177       C  0.28858906  0.71305645  0.97761693     0.36490
C1178       C  0.18853834  0.53738129  0.00468375     0.36490
N1179       N  0.30044732  0.74863524  0.97442837    -0.38330
N1180       N  0.16589981  0.00258568  0.01204549    -0.38330
N1181       N  0.18990070  0.68167918  0.94808945    -0.37780
N1182       N  0.28148314  0.55134498  0.52441606    -0.37780
C1183       C  0.36701620  0.71843622  0.99274732    -0.04440
C1184       C  0.36915362  0.73136630  0.96399268    -0.01560
C1185       C  0.38702894  0.77469381  0.95681375     0.03430
C1186       C  0.40530991  0.80593866  0.97795708    -0.04440
C1187       C  0.41153231  0.79413813  0.50508008    -0.01550
C1188       C  0.39621882  0.75133755  0.51147678     0.03420
C1189       C  0.35053787  0.70071700  0.94162562     0.38070
C1190       C  0.43732401  0.82626315  0.52574445     0.38060
C1191       C  0.41932345  0.74305617  0.53326252     0.36490
C1192       C  0.38289791  0.78601887  0.92791449     0.36490
N1193       N  0.43916877  0.73657262  0.54948052    -0.38330
N1194       N  0.37928908  0.79471216  0.90487741    -0.38330
N1195       N  0.45791550  0.85177056  0.54224613    -0.37780
N1196       N  0.33636543  0.67828586  0.92266610    -0.37780
C1197       C  0.40758370  0.60586442  0.97982991    -0.04440
C1198       C  0.36663324  0.59045029  0.96773101    -0.01560
C1199       C  0.34512648  0.61240843  0.97141957     0.03430
C1200       C  0.36423705  0.64996718  0.98811975    -0.04440
C1201       C  0.40943984  0.66978151  0.49190443    -0.01550
C1202       C  0.42825599  0.64573419  0.99258767     0.03420
C1203       C  0.34686086  0.55260234  0.95080326     0.38070
C1204       C  0.43895331  0.71337682  0.48325558     0.38060
C1205       C  0.46842049  0.66263412  0.50784936     0.36490
C1206       C  0.30649039  0.59831405  0.95491981     0.36490
N1207       N  0.50021283  0.67643936  0.52034947    -0.38310
N1208       N  0.27593671  0.58629367  0.94123679    -0.38330
N1209       N  0.46354473  0.74760394  0.47573540    -0.37780
N1210       N  0.33078125  0.52262090  0.93710456    -0.37780
C1211       C  0.33938477  0.66708750  0.53565679    -0.04440
C1212       C  0.34803158  0.64007433  0.55308815    -0.01560
C1213       C  0.33875569  0.63514051  0.58224825     0.03430
C1214       C  0.33850103  0.66805950  0.59720961    -0.04440
C1215       C  0.34232922  0.70120802  0.57957150    -0.01550
C1216       C  0.32938368  0.69290889  0.55139952     0.03420
C1217       C  0.36362438  0.61457517  0.54311082     0.38070
C1218       C  0.37154750  0.74566968  0.58556215     0.38060
C1219       C  0.30999157  0.71535539  0.54023621     0.36490
C1220       C  0.32576543  0.59422481  0.59535990     0.36490
N1221       N  0.29422865  0.73453460  0.53481730    -0.38330
N1222       N  0.31496064  0.56109945  0.60493696    -0.38330
N1223       N  0.39549082  0.78149414  0.58902034    -0.37780
N1224       N  0.37478949  0.59178028  0.53806834    -0.37780
C1225       C  0.83983492  0.17005245  0.00207834    -0.01590
C1226       C  0.83365118  0.16652268  0.13056174    -0.01590
C1227       C  0.66095659  0.34694455  0.38539970    -0.01590
C1228       C  0.65456529  0.33909425  0.25686673    -0.01590
C1229       C  0.93039783  0.08290246  0.47738671     0.43350
N1230       N  0.94405198  0.03352035  0.47638598     0.02240
C1231       C  0.63816108  0.06185667  0.44330044    -0.05640
H1232       H  0.57571786  0.12488213  0.36969611     0.07730
C1233       C  0.95811664  0.47554393  0.34882501    -0.05990
Co1234     Co  0.53709261  0.06860783  0.47110175     0.74180
N1235       N  0.55970408  0.09534257  0.41068825    -0.25160
Co1236     Co  0.55694342  0.03803173  0.40750557     0.74070
C1237       C  0.98891889  0.00985402  0.33058368     0.43450
N1238       N  0.90507547  0.44784848  0.41612338     0.01860
N1239       N  0.51400050  0.01971417  0.37313055     0.01960
N1240       N  0.62399857  0.08070908  0.48423309    -0.46010
H1241       H  0.00165616  0.13449181  0.47326534     0.07720
N1242       N  0.55312107  0.10712504  0.43488190     0.02250
N1243       N  0.55169246  0.47904755  0.40588447     0.01990
C1244       C  0.56316834  0.42802231  0.40560529     0.43590
N1245       N  0.89868030  0.45907575  0.44061746    -0.24620
C1246       C  0.53670447  0.03692749  0.03345915    -0.05540
N1247       N  0.91244587  0.04032856  0.47808767    -0.45730
N1248       N  0.58238817  0.47088605  0.40475606    -0.45950
C1249       C  0.00569763  0.50119378  0.05095924     0.43370
N1250       N  0.59151623  0.06659379  0.46620401     0.02240
N1251       N  0.93524142  0.41731698  0.47030875    -0.24640
N1252       N  0.98155123  0.06893624  0.47457977    -0.25140
N1253       N  0.94305766  0.40721592  0.44590338     0.01870
H1254       H  0.90957881  0.38124214  0.00877822     0.07760
H1255       H  0.49177622  0.37796999  0.40960365     0.07800
N1256       N  0.59916162  0.05575644  0.44194777    -0.25180
N1257       N  0.97648700  0.48425064  0.37458658    -0.24800
N1258       N  0.98228411  0.49290890  0.00819480     0.02240
C1259       C  0.56886214  0.15988172  0.40662213     0.43640
C1260       C  0.86000218  0.45279977  0.44088422    -0.06050
N1261       N  0.51370264  0.44415119  0.40725327    -0.24800
H1262       H  0.92889124  0.44661242  0.34308608     0.07780
N1263       N  0.55880789  0.14537233  0.43339118    -0.46020
H1264       H  0.84507804  0.45645186  0.45882758     0.07770
C1265       C  0.92134579  0.35111982  0.47104374     0.43470
C1266       C  0.97626555  0.10171333  0.47489880    -0.05550
Co1267     Co  0.93969106  0.47530456  0.47429855     0.73820
N1268       N  0.87110438  0.43212147  0.39934763    -0.45740
C1269       C  0.65413090  0.07742030  0.47152459     0.43740
N1270       N  0.97269554  0.47563907  0.03377413    -0.45730
Co1271     Co  0.95906106  0.44559065  0.41062826     0.73890
C1272       C  0.51767940  0.41051982  0.40748083    -0.06050
C1273       C  0.56911707  0.12612682  0.39146052    -0.05620
N1274       N  0.51931514  0.02911412  0.00736338    -0.25140
N1275       N  0.52297465  0.03568038  0.34714138    -0.45910
H1276       H  0.65426408  0.05818438  0.42609483     0.07740
C1277       C  0.92105047  0.38355859  0.48778162    -0.06030
Cl1278     Cl  0.99824693  0.00690698  0.44090155    -0.49030
C1279       C  0.84207213  0.43505820  0.41378627     0.43500
H1280       H  0.56537342  0.06588004  0.03990225     0.07710
N1281       N  0.93531772  0.36838940  0.44555931    -0.45740
C1282       C  0.83201391  0.41970890  0.21472671     0.43350
N1283       N  0.89099777  0.45007387  0.19239325     0.02240
C1284       C  0.58394039  0.47115809  0.22677064    -0.05640
H1285       H  0.55615281  0.06678885  0.28818699     0.07730
C1286       C  0.56201872  0.14568630  0.19129518    -0.05990
Co1287     Co  0.95881759  0.44301411  0.22361358     0.74180
N1288       N  0.51714293  0.02091476  0.25669080    -0.25160
Co1289     Co  0.55710763  0.03771723  0.22219701     0.74070
C1290       C  0.58231862  0.16153598  0.21871406     0.43450
N1291       N  0.97339641  0.06252704  0.15437659     0.01860
N1292       N  0.56115362  0.09556470  0.21618541     0.01960
N1293       N  0.51946788  0.41028531  0.22832788    -0.46010
H1294       H  0.86317109  0.40737615  0.25353220     0.07720
N1295       N  0.97949322  0.48527105  0.25751170     0.02250
N1296       N  0.59607692  0.05374513  0.18781538     0.01990
C1297       C  0.65128109  0.07591193  0.16306809     0.43590
N1298       N  0.93626230  0.02625654  0.15467522    -0.24620
C1299       C  0.93068786  0.36267937  0.19072613    -0.05540
N1300       N  0.85031307  0.43807632  0.19002138    -0.45730
N1301       N  0.63512011  0.06113273  0.18874065    -0.45950
C1302       C  0.91342539  0.34664439  0.16294711     0.43370
N1303       N  0.51580145  0.44387025  0.22724043     0.02240
N1304       N  0.97310740  0.48636034  0.12424558    -0.24640
N1305       N  0.90100981  0.44071749  0.21732582    -0.25140
N1306       N  0.51018984  0.02256241  0.12399425     0.01870
H1307       H  0.93657961  0.44096055  0.09186434     0.07760
H1308       H  0.62102684  0.09098278  0.12513244     0.07800
N1309       N  0.55304294  0.47983420  0.22629592    -0.25180
N1310       N  0.55068904  0.10499799  0.19152286    -0.24800
N1311       N  0.92996047  0.41116242  0.16487741     0.02240
C1312       C  0.98990057  0.01013525  0.29941461     0.43640
C1313       C  0.90527828  0.03460567  0.15369159    -0.06050
N1314       N  0.58589132  0.06362009  0.16320819    -0.24800
H1315       H  0.55896815  0.16254647  0.17340822     0.07780
N1316       N  0.96251385  0.47726205  0.28288059    -0.46020
H1317       H  0.87152282  0.01131158  0.15403248     0.07770
C1318       C  0.00275992  0.49924152  0.08201415     0.43470
C1319       C  0.86581538  0.42176218  0.23300986    -0.05550
Co1320     Co  0.93223357  0.46825028  0.15855794     0.73820
N1321       N  0.96964719  0.09600340  0.15329712    -0.45740
C1322       C  0.56153292  0.42498051  0.22787074     0.43740
N1323       N  0.91309334  0.37807154  0.14800897    -0.45730
Co1324     Co  0.53007381  0.06372697  0.15787095     0.73890
C1325       C  0.61883410  0.07780975  0.14602858    -0.06050
C1326       C  0.52620667  0.03896147  0.28203449    -0.05620
N1327       N  0.93985071  0.40246246  0.19001388    -0.25140
N1328       N  0.58043493  0.12859780  0.23303785    -0.45910
H1329       H  0.61774289  0.49420946  0.22594081     0.07740
C1330       C  0.96574325  0.46915070  0.09865173    -0.06030
Cl1331     Cl  0.99435795  0.00322743  0.19065254    -0.49030
C1332       C  0.92757004  0.08080038  0.15291582     0.43500
H1333       H  0.93288333  0.34616613  0.20915238     0.07710
N1334       N  0.52859201  0.03170787  0.09911134    -0.45740
C1335       C  0.60116569  0.20530378  0.22963919    -0.04440
C1336       C  0.62191501  0.24113204  0.21170728    -0.01560
C1337       C  0.62563830  0.27897477  0.21961214     0.03430
C1338       C  0.63037060  0.28971480  0.24852296    -0.04440
C1339       C  0.60808765  0.25266932  0.26706510    -0.01550
C1340       C  0.59370830  0.21129717  0.25735656     0.03420
C1341       C  0.63285846  0.23806978  0.18330752     0.38070
C1342       C  0.59749619  0.25351303  0.29594927     0.38060
C1343       C  0.57061262  0.17459926  0.27608196     0.36490
C1344       C  0.59670965  0.28590702  0.20268724     0.36490
N1345       N  0.55240730  0.14570332  0.29116197    -0.38330
N1346       N  0.57208388  0.28926720  0.18917572    -0.38330
N1347       N  0.58928539  0.25094886  0.31946408    -0.37780
N1348       N  0.64172735  0.23590165  0.16059419    -0.37780
C1349       C  0.62369267  0.35413635  0.24418892    -0.04440
C1350       C  0.58561000  0.34400607  0.25844505    -0.01560
C1351       C  0.56646273  0.36796663  0.25350911     0.03430
C1352       C  0.58030174  0.39818945  0.23165438    -0.04440
C1353       C  0.61052290  0.40117775  0.21301703    -0.01550
C1354       C  0.63009406  0.37741309  0.21811913     0.03420
C1355       C  0.56457227  0.30993851  0.27879082     0.38070
C1356       C  0.62099282  0.42824839  0.18814193     0.38060
C1357       C  0.65339997  0.37487708  0.19500117     0.36490
C1358       C  0.53424722  0.36353008  0.27251383     0.36490
N1359       N  0.67135237  0.37288113  0.17622303    -0.38330
N1360       N  0.50895119  0.36027156  0.28778405    -0.38330
N1361       N  0.62946230  0.44988992  0.16833450    -0.37780
N1362       N  0.54275162  0.28399239  0.29486065    -0.37780
C1363       C  0.70344918  0.36639030  0.24571022    -0.04440
C1364       C  0.72516414  0.40663451  0.23062806    -0.01560
C1365       C  0.76370316  0.41996917  0.21617617     0.03430
C1366       C  0.78545265  0.39851193  0.22082543    -0.04440
C1367       C  0.76462639  0.36097478  0.23715991    -0.01550
C1368       C  0.73375690  0.35637760  0.25556426     0.03420
C1369       C  0.71543956  0.43917668  0.23363565     0.38070
C1370       C  0.78222934  0.33458309  0.24152953     0.38060
C1371       C  0.75689280  0.37954203  0.28067318     0.36490
C1372       C  0.77953642  0.45448428  0.19578552     0.36490
N1373       N  0.77687673  0.39998611  0.29957825    -0.38330
N1374       N  0.79040057  0.98068965  0.17859726    -0.38330
N1375       N  0.79618992  0.31334539  0.24499033    -0.37780
N1376       N  0.71083176  0.46758517  0.23409062    -0.37780
C1377       C  0.58890693  0.20604326  0.39908035    -0.04440
C1378       C  0.57758528  0.23079496  0.41398998    -0.01560
C1379       C  0.60352472  0.27569322  0.41350353     0.03430
C1380       C  0.63919806  0.29764824  0.39500463    -0.04440
C1381       C  0.65367538  0.27145550  0.38530461    -0.01550
C1382       C  0.62564599  0.22743073  0.38259229     0.03420
C1383       C  0.53771812  0.21027022  0.42891411     0.38070
C1384       C  0.69655900  0.28203237  0.39195341     0.38060
C1385       C  0.63937184  0.20469289  0.36616256     0.36490
C1386       C  0.59556368  0.29755967  0.43493661     0.36490
N1387       N  0.65129297  0.18764286  0.35282588    -0.38330
N1388       N  0.58884017  0.31415021  0.45238708    -0.38330
N1389       N  0.72946519  0.28719036  0.39803235    -0.37780
N1390       N  0.00566257  0.19468602  0.44039975    -0.37780
C1391       C  0.58519861  0.40405192  0.40462953    -0.04440
C1392       C  0.56624509  0.36485383  0.39075277    -0.01560
C1393       C  0.58964568  0.34543712  0.38648466     0.03430
C1394       C  0.63321653  0.36474831  0.39604148    -0.04440
C1395       C  0.64865811  0.40033874  0.41438494    -0.01550
C1396       C  0.62580152  0.42069660  0.41714808     0.03420
C1397       C  0.52427898  0.34629424  0.37766043     0.38070
C1398       C  0.68628514  0.41607654  0.43232575     0.38060
C1399       C  0.64463579  0.45928471  0.43330927     0.36490
C1400       C  0.56888482  0.30687224  0.37021133     0.36490
N1401       N  0.66028465  0.99004316  0.44611585    -0.38330
N1402       N  0.55047176  0.27549328  0.35802852    -0.38330
N1403       N  0.71588664  0.43011462  0.44715749    -0.37780
N1404       N  0.99099287  0.33093825  0.36694149    -0.37780
C1405       C  0.70815785  0.37421474  0.39662010    -0.04440
C1406       C  0.73871076  0.41346118  0.38296089    -0.01560
C1407       C  0.78247542  0.43035157  0.38667322     0.03430
C1408       C  0.79674345  0.41286036  0.40704134    -0.04440
C1409       C  0.76768935  0.37929785  0.42445877    -0.01550
C1410       C  0.72372368  0.36138403  0.42028324     0.03420
C1411       C  0.72740660  0.44011064  0.36734034     0.38070
C1412       C  0.78307263  0.36231272  0.44638828     0.38060
C1413       C  0.69610885  0.33293936  0.44218919     0.36490
C1414       C  0.81321156  0.46657391  0.36981156     0.36490
N1415       N  0.67623772  0.31075608  0.46055683    -0.38330
N1416       N  0.83762370  0.99520604  0.35637537    -0.38330
N1417       N  0.79534736  0.34871115  0.46373486    -0.37780
N1418       N  0.72329755  0.46528201  0.35533849    -0.37780
C1419       C  0.66037394  0.34505602  0.29009357    -0.04440
C1420       C  0.67710072  0.32523560  0.30805482    -0.01560
C1421       C  0.68525466  0.33491180  0.33677905     0.03430
C1422       C  0.66340055  0.35041655  0.35151994    -0.04440
C1423       C  0.65020921  0.37358327  0.33344410    -0.01550
C1424       C  0.65525930  0.37545976  0.30388396     0.03420
C1425       C  0.68820376  0.29553413  0.29812575     0.38070
C1426       C  0.63782097  0.40203850  0.34338211     0.38060
C1427       C  0.65853339  0.41176764  0.28897121     0.36490
C1428       C  0.72545876  0.34145384  0.34703401     0.36490
N1429       N  0.65934901  0.44125060  0.27960469    -0.38330
N1430       N  0.75884317  0.34784077  0.35309693    -0.38330
N1431       N  0.62906720  0.42658314  0.34885778    -0.37780
N1432       N  0.69711218  0.27181808  0.29086703    -0.37780
C1433       C  0.69667739  0.09557767  0.15603394    -0.04440
C1434       C  0.72917565  0.12431595  0.17418429    -0.01560
C1435       C  0.77238956  0.14328018  0.16703251     0.03430
C1436       C  0.78460008  0.13900246  0.13930546    -0.04440
C1437       C  0.74935495  0.11193246  0.12049641    -0.01550
C1438       C  0.70720139  0.08747657  0.13013003     0.03420
C1439       C  0.71818143  0.13566677  0.20013574     0.38070
C1440       C  0.75176184  0.11077391  0.09037098     0.38060
C1441       C  0.67371641  0.05418513  0.11271728     0.36490
C1442       C  0.80308697  0.16592289  0.18947262     0.36490
N1443       N  0.64722038  0.02768498  0.09892566    -0.38330
N1444       N  0.82510452  0.18307705  0.20860539    -0.38330
N1445       N  0.74924477  0.10779614  0.06618020    -0.37780
N1446       N  0.70946530  0.14506657  0.22063722    -0.37780
C1447       C  0.85240172  0.21310589  0.14247479    -0.04440
C1448       C  0.88993487  0.23480241  0.16025368    -0.01560
C1449       C  0.91197524  0.27903181  0.16301065     0.03430
C1450       C  0.89241878  0.30147199  0.15507902    -0.04440
C1451       C  0.85092798  0.27923458  0.14346810    -0.01550
C1452       C  0.83118054  0.23581136  0.13669855     0.03420
C1453       C  0.90471290  0.21329036  0.17886244     0.38070
C1454       C  0.82857311  0.30116956  0.13808678     0.38060
C1455       C  0.79025886  0.21628326  0.12203218     0.36490
C1456       C  0.95546411  0.30144812  0.17411401     0.36490
N1457       N  0.75778441  0.20167014  0.11028161    -0.38330
N1458       N  0.99008664  0.31910648  0.18283008    -0.38330
N1459       N  0.81074195  0.31864373  0.13384765    -0.37780
N1460       N  0.91710759  0.19731525  0.19423226    -0.37780
C1461       C  0.86092639  0.14733363  0.14198023    -0.04440
C1462       C  0.84614049  0.11111083  0.16070928    -0.01560
C1463       C  0.87260459  0.09536748  0.16770151     0.03430
C1464       C  0.90821437  0.10692401  0.15155659    -0.04440
C1465       C  0.92397958  0.14231415  0.13350824    -0.01550
C1466       C  0.90315212  0.16478711  0.13106283     0.03420
C1467       C  0.80364731  0.08615526  0.17177566     0.38070
C1468       C  0.96112262  0.15524212  0.11669908     0.38060
C1469       C  0.92656719  0.20642409  0.11769009     0.36490
C1470       C  0.86476571  0.06909525  0.19275509     0.36490
N1471       N  0.94735871  0.24037342  0.10844436    -0.38330
N1472       N  0.85953984  0.04933215  0.21317496    -0.38330
N1473       N  0.99047096  0.16539022  0.10309645    -0.37780
N1474       N  0.77016312  0.06413573  0.18106936    -0.37780
C1475       C  0.78986190  0.14695960  0.49396299    -0.04440
C1476       C  0.76099867  0.10285960  0.50190833    -0.01560
C1477       C  0.71680207  0.08122492  0.49557593     0.03430
C1478       C  0.69956666  0.10131208  0.48029670    -0.04440
C1479       C  0.72532379  0.14431564  0.47340425    -0.01550
C1480       C  0.76910256  0.16766051  0.48117255     0.03420
C1481       C  0.77496720  0.07648091  0.51493632     0.38070
C1482       C  0.70563601  0.16515505  0.45912943     0.38060
C1483       C  0.78851355  0.21304033  0.47760914     0.36490
C1484       C  0.68844289  0.03738592  0.50470071     0.36490
N1485       N  0.80037641  0.24862145  0.47442875    -0.38330
N1486       N  0.66600380  0.50256904  0.51200811    -0.38330
N1487       N  0.68986374  0.18164850  0.44799701    -0.37780
N1488       N  0.78138465  0.05132369  0.02441552    -0.37780
C1489       C  0.86694187  0.21841819  0.49274976    -0.04440
C1490       C  0.86908357  0.23135803  0.46399684    -0.01560
C1491       C  0.88698292  0.27469046  0.45682280     0.03430
C1492       C  0.90529375  0.30593113  0.47796727    -0.04440
C1493       C  0.91149781  0.29411527  0.00508966    -0.01550
C1494       C  0.89615604  0.25130808  0.01148234     0.03420
C1495       C  0.85045697  0.20071448  0.44162658     0.38070
C1496       C  0.93730400  0.32623035  0.02575662     0.38060
C1497       C  0.91925255  0.24300496  0.03326198     0.36490
C1498       C  0.88285415  0.28603039  0.42792718     0.36490
N1499       N  0.93909106  0.23650264  0.04947391    -0.38330
N1500       N  0.87924752  0.29473706  0.40489318    -0.38330
N1501       N  0.95790699  0.35173042  0.04225975    -0.37780
N1502       N  0.83627368  0.17828409  0.42266717    -0.37780
C1503       C  0.90750767  0.10584994  0.47982962    -0.04440
C1504       C  0.86655713  0.09043321  0.46772918    -0.01560
C1505       C  0.84504820  0.11238980  0.47141569     0.03430
C1506       C  0.86415780  0.14994952  0.48811396    -0.04440
C1507       C  0.90936108  0.16976701  0.99189671    -0.01550
C1508       C  0.92817819  0.14572097  0.49258508     0.03420
C1509       C  0.84678685  0.05258474  0.45080239     0.38070
C1510       C  0.93887098  0.21335582  0.98323221     0.38060
C1511       C  0.96834313  0.16262570  0.00784656     0.36490
C1512       C  0.80641273  0.09829496  0.45491529     0.36490
N1513       N  0.00013631  0.17643501  0.02034615    -0.38310
N1514       N  0.77585962  0.08627486  0.44123170    -0.38330
N1515       N  0.96345845  0.24757812  0.97570148    -0.37780
N1516       N  0.83070760  0.02260313  0.43710394    -0.37780
C1517       C  0.83930144  0.16706038  0.03565258    -0.04440
C1518       C  0.84795498  0.14005036  0.05308195    -0.01560
C1519       C  0.83869483  0.13512455  0.08224444     0.03430
C1520       C  0.83844606  0.16804663  0.09720647    -0.04440
C1521       C  0.84225990  0.20118840  0.07956751    -0.01550
C1522       C  0.82930420  0.19288281  0.05139700     0.03420
C1523       C  0.86353593  0.11454343  0.04309995     0.38070
C1524       C  0.87147976  0.24565145  0.08555214     0.38060
C1525       C  0.80990363  0.21532184  0.04023493     0.36490
C1526       C  0.82571015  0.09421119  0.09535799     0.36490
N1527       N  0.79413146  0.23449223  0.03481556    -0.38330
N1528       N  0.81490983  0.06108759  0.10493632    -0.38330
N1529       N  0.89542429  0.28147683  0.08900574    -0.37780
N1530       N  0.87469122  0.09174170  0.03805421    -0.37780
C1531       C  0.83983504  0.17005245  0.50207836    -0.01590
C1532       C  0.83365134  0.16652268  0.63056177    -0.01590
C1533       C  0.66095657  0.34694453  0.88539970    -0.01590
C1534       C  0.65456526  0.33909421  0.75686675    -0.01590
C1535       C  0.93039771  0.08290245  0.97738669     0.43350
N1536       N  0.94405182  0.03352032  0.97638595     0.02240
C1537       C  0.63816092  0.06185658  0.94330046    -0.05640
H1538       H  0.57571781  0.12488210  0.86969613     0.07730
C1539       C  0.95811662  0.47554391  0.84882502    -0.05990
Co1540     Co  0.53709245  0.06860776  0.97110175     0.74180
N1541       N  0.55970397  0.09534252  0.91068826    -0.25160
Co1542     Co  0.55694329  0.03803165  0.90750558     0.74070
C1543       C  0.98891883  0.00985400  0.83058365     0.43450
N1544       N  0.90507546  0.44784847  0.91612338     0.01860
N1545       N  0.51400040  0.01971413  0.87313053     0.01960
N1546       N  0.62399842  0.08070901  0.98423310    -0.46010
H1547       H  0.00165605  0.13449178  0.97326534     0.07720
N1548       N  0.55312096  0.10712499  0.93488191     0.02250
N1549       N  0.55169246  0.47904756  0.90588448     0.01990
C1550       C  0.56316834  0.42802232  0.90560529     0.43590
N1551       N  0.89868029  0.45907575  0.94061745    -0.24620
C1552       C  0.53670470  0.03692758  0.53345915    -0.05540
N1553       N  0.91244573  0.04032855  0.97808764    -0.45730
N1554       N  0.58238817  0.47088606  0.90475606    -0.45950
C1555       C  0.00569761  0.50119377  0.55095926     0.43370
N1556       N  0.59151607  0.06659370  0.96620403     0.02240
N1557       N  0.93524141  0.41731699  0.97030875    -0.24640
N1558       N  0.98155108  0.06893621  0.97457975    -0.25140
N1559       N  0.94305766  0.40721593  0.94590339     0.01870
H1560       H  0.90957886  0.38124212  0.50877823     0.07760
H1561       H  0.49177623  0.37797000  0.90960365     0.07800
N1562       N  0.59916146  0.05575634  0.94194779    -0.25180
N1563       N  0.97648699  0.48425063  0.87458658    -0.24800
N1564       N  0.98228411  0.49290888  0.50819481     0.02240
C1565       C  0.56886209  0.15988168  0.90662215     0.43640
C1566       C  0.86000217  0.45279976  0.94088421    -0.06050
N1567       N  0.51370264  0.44415119  0.90725327    -0.24800
H1568       H  0.92889122  0.44661240  0.84308609     0.07780
N1569       N  0.55880781  0.14537229  0.93339119    -0.46020
H1570       H  0.84507803  0.45645186  0.95882757     0.07770
C1571       C  0.92134575  0.35111983  0.97104374     0.43470
C1572       C  0.97626543  0.10171330  0.97489879    -0.05550
Co1573     Co  0.93969105  0.47530457  0.97429854     0.73820
N1574       N  0.87110437  0.43212144  0.89934763    -0.45740
C1575       C  0.65413075  0.07742023  0.97152461     0.43740
N1576       N  0.97269554  0.47563905  0.53377415    -0.45730
Co1577     Co  0.95906106  0.44559065  0.91062826     0.73890
C1578       C  0.51767941  0.41051983  0.90748084    -0.06050
C1579       C  0.56911700  0.12612678  0.89146053    -0.05620
N1580       N  0.51931534  0.02911420  0.50736338    -0.25140
N1581       N  0.52297458  0.03568035  0.84714136    -0.45910
H1582       H  0.65426393  0.05818429  0.92609485     0.07740
C1583       C  0.92105043  0.38355860  0.98778162    -0.06030
Cl1584     Cl  0.99824677  0.00690693  0.94090154    -0.49030
C1585       C  0.84207211  0.43505817  0.91378627     0.43500
H1586       H  0.56537365  0.06588013  0.53990224     0.07710
N1587       N  0.93531771  0.36838940  0.94555932    -0.45740
C1588       C  0.83201390  0.41970886  0.71472675     0.43350
N1589       N  0.89099775  0.45007382  0.69239328     0.02240
C1590       C  0.58394039  0.47115806  0.72677063    -0.05640
H1591       H  0.55615280  0.06678883  0.78818699     0.07730
C1592       C  0.56201887  0.14568631  0.69129517    -0.05990
Co1593     Co  0.95881759  0.44301408  0.72361360     0.74180
N1594       N  0.51714297  0.02091475  0.75669080    -0.25160
Co1595     Co  0.55710773  0.03771723  0.72219704     0.74070
C1596       C  0.58231871  0.16153599  0.71871406     0.43450
N1597       N  0.97339662  0.06252708  0.65437654     0.01860
N1598       N  0.56115374  0.09556471  0.71618541     0.01960
N1599       N  0.51946787  0.41028529  0.72832788    -0.46010
H1600       H  0.86317111  0.40737614  0.75353224     0.07720
N1601       N  0.97949321  0.48527101  0.75751172     0.02250
N1602       N  0.59607708  0.05374513  0.68781543     0.01990
C1603       C  0.65128126  0.07591190  0.66306816     0.43590
N1604       N  0.93626250  0.02625660  0.65467517    -0.24620
C1605       C  0.93068788  0.36267935  0.69072614    -0.05540
N1606       N  0.85031305  0.43807627  0.69002142    -0.45730
N1607       N  0.63512026  0.06113272  0.68874072    -0.45950
C1608       C  0.91342541  0.34664437  0.66294712     0.43370
N1609       N  0.51580145  0.44387023  0.72724043     0.02240
N1610       N  0.97310738  0.48636033  0.62424560    -0.24640
N1611       N  0.90100980  0.44071746  0.71732585    -0.25140
N1612       N  0.51019008  0.02256245  0.62399425     0.01870
H1613       H  0.93657960  0.44096054  0.59186436     0.07760
H1614       H  0.62102706  0.09098276  0.62513248     0.07800
N1615       N  0.55304294  0.47983417  0.72629591    -0.25180
N1616       N  0.55068919  0.10499801  0.69152285    -0.24800
N1617       N  0.92996047  0.41116239  0.66487743     0.02240
C1618       C  0.98990055  0.01013523  0.79941458     0.43640
C1619       C  0.90527850  0.03460574  0.65369153    -0.06050
N1620       N  0.58589151  0.06362010  0.66320822    -0.24800
H1621       H  0.55896831  0.16254647  0.67340821     0.07780
N1622       N  0.96251384  0.47726202  0.78288060    -0.46020
H1623       H  0.87152304  0.01131166  0.65403243     0.07770
C1624       C  0.00275990  0.49924153  0.58201417     0.43470
C1625       C  0.86581539  0.42176216  0.73300990    -0.05550
Co1626     Co  0.93223354  0.46825025  0.65855797     0.73820
N1627       N  0.96964741  0.09600345  0.65329707    -0.45740
C1628       C  0.56153291  0.42498048  0.72787073     0.43740
N1629       N  0.91309335  0.37807152  0.64800898    -0.45730
Co1630     Co  0.53007401  0.06372699  0.65787095     0.73890
C1631       C  0.61883429  0.07780974  0.64602863    -0.06050
C1632       C  0.52620667  0.03896145  0.78203449    -0.05620
N1633       N  0.93985071  0.40246244  0.69001389    -0.25140
N1634       N  0.58043501  0.12859780  0.73303786    -0.45910
H1635       H  0.61774288  0.49420943  0.72594080     0.07740
C1636       C  0.96574324  0.46915070  0.59865175    -0.06030
Cl1637     Cl  0.99435809  0.00322744  0.69065252    -0.49030
C1638       C  0.92757028  0.08080045  0.65291576     0.43500
H1639       H  0.93288336  0.34616612  0.70915239     0.07710
N1640       N  0.52859227  0.03170791  0.59911134    -0.45740
C1641       C  0.60116574  0.20530378  0.72963920    -0.04440
C1642       C  0.62191504  0.24113204  0.71170729    -0.01560
C1643       C  0.62563825  0.27897474  0.71961215     0.03430
C1644       C  0.63037057  0.28971477  0.74852297    -0.04440
C1645       C  0.60808762  0.25266928  0.76706510    -0.01550
C1646       C  0.59370831  0.21129714  0.75735656     0.03420
C1647       C  0.63285851  0.23806983  0.68330753     0.38070
C1648       C  0.59749613  0.25351298  0.79594927     0.38060
C1649       C  0.57061266  0.17459923  0.77608196     0.36490
C1650       C  0.59670946  0.28590686  0.70268731     0.36490
N1651       N  0.55240734  0.14570329  0.79116197    -0.38330
N1652       N  0.57208360  0.28926695  0.68917584    -0.38330
N1653       N  0.58928532  0.25094879  0.81946408    -0.37780
N1654       N  0.64172742  0.23590173  0.66059419    -0.37780
C1655       C  0.62369263  0.35413631  0.74418894    -0.04440
C1656       C  0.58561000  0.34400609  0.75844510    -0.01560
C1657       C  0.56646275  0.36796667  0.75350915     0.03430
C1658       C  0.58030172  0.39818942  0.73165439    -0.04440
C1659       C  0.61052282  0.40117764  0.71301701    -0.01550
C1660       C  0.63009397  0.37741297  0.71811913     0.03420
C1661       C  0.56457229  0.30993855  0.77879089     0.38070
C1662       C  0.62099268  0.42824820  0.68814187     0.38060
C1663       C  0.65339982  0.37487689  0.69500116     0.36490
C1664       C  0.53424731  0.36353020  0.77251390     0.36490
N1665       N  0.67135219  0.37288089  0.67622301    -0.38330
N1666       N  0.50895134  0.36027174  0.78778414    -0.38330
N1667       N  0.62946212  0.44988968  0.66833442    -0.37780
N1668       N  0.54275165  0.28399246  0.79486074    -0.37780
C1669       C  0.70344915  0.36639028  0.74571023    -0.04440
C1670       C  0.72516408  0.40663443  0.73062801    -0.01560
C1671       C  0.76370311  0.41996908  0.71617614     0.03430
C1672       C  0.78545264  0.39851190  0.72082549    -0.04440
C1673       C  0.76462642  0.36097481  0.73716003    -0.01550
C1674       C  0.73375690  0.35637766  0.75556434     0.03420
C1675       C  0.71543948  0.43917661  0.73363553     0.38070
C1676       C  0.78222940  0.33458316  0.74152974     0.38060
C1677       C  0.75689274  0.37954217  0.78067326     0.36490
C1678       C  0.77953635  0.45448412  0.69578544     0.36490
N1679       N  0.77687661  0.39998630  0.79957832    -0.38330
N1680       N  0.79040089  0.98069015  0.67859755    -0.38330
N1681       N  0.79619000  0.31334549  0.74499061    -0.37780
N1682       N  0.71083165  0.46758507  0.73409046    -0.37780
C1683       C  0.58890690  0.20604324  0.89908038    -0.04440
C1684       C  0.57758525  0.23079494  0.91399000    -0.01560
C1685       C  0.60352470  0.27569320  0.91350354     0.03430
C1686       C  0.63919804  0.29764822  0.89500464    -0.04440
C1687       C  0.65367536  0.27145547  0.88530463    -0.01550
C1688       C  0.62564597  0.22743070  0.88259232     0.03420
C1689       C  0.53771809  0.21027021  0.92891413     0.38070
C1690       C  0.69655898  0.28203234  0.89195343     0.38060
C1691       C  0.63937182  0.20469285  0.86616260     0.36490
C1692       C  0.59556366  0.29755967  0.93493662     0.36490
N1693       N  0.65129296  0.18764281  0.85282594    -0.38330
N1694       N  0.58884015  0.31415021  0.95238708    -0.38330
N1695       N  0.72946517  0.28719034  0.89803238    -0.37780
N1696       N  0.00566254  0.19468603  0.94039976    -0.37780
C1697       C  0.58519861  0.40405193  0.90462953    -0.04440
C1698       C  0.56624509  0.36485384  0.89075276    -0.01560
C1699       C  0.58964567  0.34543712  0.88648466     0.03430
C1700       C  0.63321652  0.36474830  0.89604148    -0.04440
C1701       C  0.64865811  0.40033874  0.91438494    -0.01550
C1702       C  0.62580153  0.42069661  0.91714807     0.03420
C1703       C  0.52427898  0.34629426  0.87766042     0.38070
C1704       C  0.68628515  0.41607656  0.93232573     0.38060
C1705       C  0.64463580  0.45928473  0.93330926     0.36490
C1706       C  0.56888480  0.30687223  0.87021135     0.36490
N1707       N  0.66028443  0.99004294  0.94611591    -0.38330
N1708       N  0.55047174  0.27549326  0.85802855    -0.38330
N1709       N  0.71588667  0.43011465  0.94715746    -0.37780
N1710       N  0.99099287  0.33093827  0.86694148    -0.37780
C1711       C  0.70815783  0.37421471  0.89662010    -0.04440
C1712       C  0.73871075  0.41346115  0.88296088    -0.01560
C1713       C  0.78247541  0.43035153  0.88667321     0.03430
C1714       C  0.79674343  0.41286033  0.90704134    -0.04440
C1715       C  0.76768933  0.37929783  0.92445877    -0.01550
C1716       C  0.72372366  0.36138402  0.92028325     0.03420
C1717       C  0.72740660  0.44011060  0.86734032     0.38070
C1718       C  0.78307262  0.36231272  0.94638829     0.38060
C1719       C  0.69610883  0.33293937  0.94218920     0.36490
C1720       C  0.81321155  0.46657386  0.86981153     0.36490
N1721       N  0.67623770  0.31075610  0.96055685    -0.38330
N1722       N  0.83762319  0.99520735  0.85637609    -0.38330
N1723       N  0.79534735  0.34871116  0.96373488    -0.37780
N1724       N  0.72329755  0.46528198  0.85533846    -0.37780
C1725       C  0.66037390  0.34505598  0.79009358    -0.04440
C1726       C  0.67710066  0.32523553  0.80805483    -0.01560
C1727       C  0.68525461  0.33491173  0.83677905     0.03430
C1728       C  0.66340052  0.35041651  0.85151994    -0.04440
C1729       C  0.65020920  0.37358324  0.83344410    -0.01550
C1730       C  0.65525932  0.37545974  0.80388396     0.03420
C1731       C  0.68820373  0.29553408  0.79812575     0.38070
C1732       C  0.63782096  0.40203848  0.84338210     0.38060
C1733       C  0.65853349  0.41176765  0.78897121     0.36490
C1734       C  0.72545871  0.34145377  0.84703401     0.36490
N1735       N  0.65934918  0.44125065  0.77960468    -0.38330
N1736       N  0.75884312  0.34784071  0.85309692    -0.38330
N1737       N  0.62906719  0.42658312  0.84885776    -0.37780
N1738       N  0.69711217  0.27181805  0.79086702    -0.37780
C1739       C  0.69667756  0.09557761  0.65603402    -0.04440
C1740       C  0.72917583  0.12431591  0.67418435    -0.01560
C1741       C  0.77238974  0.14328016  0.66703256     0.03430
C1742       C  0.78460024  0.13900242  0.63930550    -0.04440
C1743       C  0.74935511  0.11193240  0.62049647    -0.01550
C1744       C  0.70720156  0.08747650  0.63013011     0.03420
C1745       C  0.71818162  0.13566673  0.70013581     0.38070
C1746       C  0.75176197  0.11077385  0.59037104     0.38060
C1747       C  0.67371658  0.05418504  0.61271737     0.36490
C1748       C  0.80308716  0.16592290  0.68947266     0.36490
N1749       N  0.64722054  0.02768488  0.59892576    -0.38330
N1750       N  0.82510473  0.18307710  0.70860542    -0.38330
N1751       N  0.74924489  0.10779607  0.56618026    -0.37780
N1752       N  0.70946549  0.14506653  0.72063728    -0.37780
C1753       C  0.85240185  0.21310589  0.64247480    -0.04440
C1754       C  0.88993502  0.23480245  0.66025368    -0.01560
C1755       C  0.91197535  0.27903184  0.66301064     0.03430
C1756       C  0.89241885  0.30147198  0.65507902    -0.04440
C1757       C  0.85092804  0.27923454  0.64346811    -0.01550
C1758       C  0.83118063  0.23581132  0.63669857     0.03420
C1759       C  0.90471310  0.21329043  0.67886243     0.38070
C1760       C  0.82857313  0.30116948  0.63808680     0.38060
C1761       C  0.79025894  0.21628318  0.62203221     0.36490
C1762       C  0.95546423  0.30144819  0.67411399     0.36490
N1763       N  0.75778448  0.20167003  0.61028165    -0.38330
N1764       N  0.99008676  0.31910659  0.68283005    -0.38330
N1765       N  0.81074194  0.31864362  0.63384768    -0.37780
N1766       N  0.91710784  0.19731535  0.69423224    -0.37780
C1767       C  0.86092660  0.14733367  0.64198025    -0.04440
C1768       C  0.84614076  0.11111091  0.66070932    -0.01560
C1769       C  0.87260490  0.09536761  0.66770153     0.03430
C1770       C  0.90821462  0.10692409  0.65155656    -0.04440
C1771       C  0.92397978  0.14231420  0.63350819    -0.01550
C1772       C  0.90315231  0.16478717  0.63106281     0.03420
C1773       C  0.80364762  0.08615534  0.67177576     0.38070
C1774       C  0.96112277  0.15524215  0.61669899     0.38060
C1775       C  0.92656736  0.20642415  0.61769008     0.36490
C1776       C  0.86476617  0.06909552  0.69275517     0.36490
N1777       N  0.94735887  0.24037349  0.60844435    -0.38330
N1778       N  0.85954044  0.04933254  0.71317508    -0.38330
N1779       N  0.99047108  0.16539023  0.60309632    -0.37780
N1780       N  0.77016346  0.06413582  0.68106950    -0.37780
C1781       C  0.78986177  0.14695959  0.99396298    -0.04440
C1782       C  0.76099856  0.10285958  0.00190832    -0.01560
C1783       C  0.71680196  0.08122489  0.99557593     0.03430
C1784       C  0.69956652  0.10131203  0.98029671    -0.04440
C1785       C  0.72532365  0.14431559  0.97340425    -0.01550
C1786       C  0.76910242  0.16766047  0.98117253     0.03420
C1787       C  0.77496710  0.07648089  0.01493630     0.38070
C1788       C  0.70563585  0.16515498  0.95912942     0.38060
C1789       C  0.78851341  0.21304029  0.97760910     0.36490
C1790       C  0.68844279  0.03738589  0.00470072     0.36490
N1791       N  0.80037627  0.24862141  0.97442870    -0.38330
N1792       N  0.66600377  0.50256904  0.01200810    -0.38330
N1793       N  0.68986357  0.18164842  0.94799700    -0.37780
N1794       N  0.78138473  0.05132370  0.52441555    -0.37780
C1795       C  0.86694176  0.21841819  0.99274974    -0.04440
C1796       C  0.86908345  0.23135803  0.96399683    -0.01560
C1797       C  0.88698282  0.27469047  0.95682280     0.03430
C1798       C  0.90529368  0.30593113  0.97796727    -0.04440
C1799       C  0.91149789  0.29411527  0.50508967    -0.01550
C1800       C  0.89615614  0.25130809  0.51148236     0.03420
C1801       C  0.85045685  0.20071449  0.94162656     0.38070
C1802       C  0.93730406  0.32623037  0.52575663     0.38060
C1803       C  0.91925265  0.24300499  0.53326199     0.36490
C1804       C  0.88285405  0.28603041  0.92792718     0.36490
N1805       N  0.93909118  0.23650268  0.54947392    -0.38330
N1806       N  0.87924741  0.29473709  0.90489318    -0.38330
N1807       N  0.95790704  0.35173044  0.54225976    -0.37780
N1808       N  0.83627355  0.17828411  0.92266716    -0.37780
C1809       C  0.90750756  0.10584994  0.97982959    -0.04440
C1810       C  0.86655702  0.09043321  0.96772916    -0.01560
C1811       C  0.84504809  0.11238981  0.97141567     0.03430
C1812       C  0.86415769  0.14994952  0.98811394    -0.04440
C1813       C  0.90936119  0.16976701  0.49189673    -0.01550
C1814       C  0.92817808  0.14572097  0.99258506     0.03420
C1815       C  0.84678672  0.05258474  0.95080236     0.38070
C1816       C  0.93887110  0.21335582  0.48323224     0.38060
C1817       C  0.96834324  0.16262570  0.50784659     0.36490
C1818       C  0.80641261  0.09829497  0.95491527     0.36490
N1819       N  0.00013642  0.17643500  0.52034618    -0.38310
N1820       N  0.77585951  0.08627488  0.94123168    -0.38330
N1821       N  0.96345857  0.24757813  0.47570152    -0.37780
N1822       N  0.83070746  0.02260314  0.93710392    -0.37780
C1823       C  0.83930156  0.16706038  0.53565260    -0.04440
C1824       C  0.84795511  0.14005035  0.55308197    -0.01560
C1825       C  0.83869497  0.13512455  0.58224446     0.03430
C1826       C  0.83844619  0.16804662  0.59720649    -0.04440
C1827       C  0.84226002  0.20118839  0.57956753    -0.01550
C1828       C  0.82930431  0.19288280  0.55139702     0.03420
C1829       C  0.86353604  0.11454341  0.54309996     0.38070
C1830       C  0.87147986  0.24565145  0.58555217     0.38060
C1831       C  0.80990371  0.21532180  0.54023497     0.36490
C1832       C  0.82571033  0.09421121  0.59535802     0.36490
N1833       N  0.79413151  0.23449217  0.53481561    -0.38330
N1834       N  0.81491004  0.06108761  0.60493636    -0.38330
N1835       N  0.89542438  0.28147683  0.58900576    -0.37780
N1836       N  0.87469130  0.09174167  0.53805422    -0.37780
C1837       C  0.83991559  0.67007306  0.00208255    -0.01590
C1838       C  0.83369489  0.66653056  0.13056346    -0.01590
C1839       C  0.66085226  0.84693881  0.38540028    -0.01590
C1840       C  0.65452487  0.83909278  0.25686794    -0.01590
C1841       C  0.93047328  0.58291701  0.47738043     0.43350
N1842       N  0.94412795  0.53353553  0.47637089     0.02240
C1843       C  0.63825086  0.56187855  0.44332330    -0.05640
H1844       H  0.57578784  0.62489195  0.36969110     0.07730
C1845       C  0.95800347  0.97555083  0.34881722    -0.05990
Co1846     Co  0.53717090  0.56862891  0.47110182     0.74180
N1847       N  0.55979219  0.59535981  0.41068747    -0.25160
Co1848     Co  0.55705084  0.53805498  0.40751363     0.74070
C1849       C  0.98902062  0.50985066  0.33058960     0.43450
N1850       N  0.90496110  0.94784764  0.41613406     0.01860
N1851       N  0.51411368  0.51971991  0.37313379     0.01960
N1852       N  0.62407351  0.58072941  0.48425091    -0.46010
H1853       H  0.00173328  0.63450851  0.47326845     0.07720
N1854       N  0.55319791  0.60713946  0.43487872     0.02250
N1855       N  0.55156544  0.97901688  0.40586434     0.01990
C1856       C  0.56302359  0.92798121  0.40556622     0.43590
N1857       N  0.89858075  0.95906620  0.44063624    -0.24620
C1858       C  0.53676752  0.53695054  0.03346336    -0.05540
N1859       N  0.91252129  0.54034261  0.47807493    -0.45730
N1860       N  0.58225356  0.97084604  0.40473035    -0.45950
C1861       C  0.00563958  0.00117182  0.05095762     0.43370
N1862       N  0.59160041  0.56662196  0.46621477     0.02240
N1863       N  0.93515560  0.91729914  0.47030421    -0.24640
N1864       N  0.98162692  0.56895234  0.47457040    -0.25140
N1865       N  0.94295014  0.90720079  0.44589037     0.01870
H1866       H  0.90956391  0.88123094  0.00878497     0.07760
H1867       H  0.49162785  0.87793763  0.40955012     0.07800
N1868       N  0.59925582  0.55578688  0.44196139    -0.25180
N1869       N  0.97636740  0.98425160  0.37458106    -0.24800
N1870       N  0.98221336  0.99288610  0.00819579     0.02240
C1871       C  0.56889566  0.65987637  0.40661101     0.43640
C1872       C  0.85990391  0.95279163  0.44091942    -0.06050
N1873       N  0.51357075  0.94412539  0.40722556    -0.24800
H1874       H  0.92877885  0.94662085  0.34307486     0.07780
N1875       N  0.55885106  0.64537269  0.43338148    -0.46020
H1876       H  0.84499326  0.95644162  0.45887150     0.07770
C1877       C  0.92130378  0.85111587  0.47103219     0.43470
C1878       C  0.97634111  0.60172879  0.47489439    -0.05550
Co1879     Co  0.93960818  0.97528729  0.47430669     0.73820
N1880       N  0.87097919  0.93212779  0.39936813    -0.45740
C1881       C  0.65420771  0.57743484  0.47154993     0.43740
N1882       N  0.97263211  0.97561726  0.03377573    -0.45730
Co1883     Co  0.95894030  0.94558083  0.41061870     0.73890
C1884       C  0.51753619  0.91048698  0.40743745    -0.06050
C1885       C  0.56918533  0.62613520  0.39145553    -0.05620
N1886       N  0.51938606  0.52913732  0.00736535    -0.25140
N1887       N  0.52307848  0.53568566  0.34714392    -0.45910
H1888       H  0.65435860  0.55820308  0.42612225     0.07740
C1889       C  0.92100347  0.88354618  0.48777844    -0.06030
Cl1890     Cl  0.99834409  0.50692463  0.44090418    -0.49030
C1891       C  0.84195580  0.93505924  0.41382306     0.43500
H1892       H  0.56543441  0.56590311  0.03990901     0.07710
N1893       N  0.93523656  0.86838466  0.44554255    -0.45740
C1894       C  0.83196555  0.91970159  0.21472341     0.43350
N1895       N  0.89094925  0.95006159  0.19239009     0.02240
C1896       C  0.58389004  0.97114908  0.22678573    -0.05640
H1897       H  0.55623122  0.56679010  0.28818399     0.07730
C1898       C  0.56205182  0.64569336  0.19130138    -0.05990
Co1899     Co  0.95876666  0.94300433  0.22361600     0.74180
N1900       N  0.51720374  0.52092333  0.25668886    -0.25160
Co1901     Co  0.55715962  0.53772774  0.22219210     0.74070
C1902       C  0.58235114  0.66154286  0.21872036     0.43450
N1903       N  0.97344071  0.56254036  0.15438208     0.01860
N1904       N  0.56120340  0.59557612  0.21618625     0.01960
N1905       N  0.51941798  0.91027602  0.22834112    -0.46010
H1906       H  0.86312029  0.90737041  0.25353066     0.07720
N1907       N  0.97943224  0.98526247  0.25751074     0.02250
N1908       N  0.59612281  0.55375673  0.18780821     0.01990
C1909       C  0.65132190  0.57591873  0.16305691     0.43590
N1910       N  0.93630698  0.52626979  0.15468014    -0.24620
C1911       C  0.93065964  0.86267564  0.19073018    -0.05540
N1912       N  0.85026502  0.93806621  0.19001747    -0.45730
N1913       N  0.63516360  0.56113877  0.18872983    -0.45950
C1914       C  0.91340970  0.84664201  0.16294929     0.43370
N1915       N  0.51575077  0.94386064  0.22725065     0.02240
N1916       N  0.97306344  0.98634368  0.12424620    -0.24640
N1917       N  0.90095963  0.94070614  0.21732340    -0.25140
N1918       N  0.51023328  0.52257977  0.12399483     0.01870
H1919       H  0.93653019  0.94094338  0.09186663     0.07760
H1920       H  0.62106629  0.59099662  0.12512538     0.07800
N1921       N  0.55299200  0.97982465  0.22630675    -0.25180
N1922       N  0.55073345  0.60500882  0.19152554    -0.24800
N1923       N  0.92992076  0.91115173  0.16488025     0.02240
C1924       C  0.98998434  0.51013688  0.29941969     0.43640
C1925       C  0.90532274  0.53461845  0.15369936    -0.06050
N1926       N  0.58593575  0.56363528  0.16320315    -0.24800
H1927       H  0.55899173  0.66255145  0.17341688     0.07780
N1928       N  0.96243916  0.97725789  0.28287482    -0.46020
H1929       H  0.87156747  0.51132401  0.15404025     0.07770
C1930       C  0.00271009  0.99922146  0.08201325     0.43470
C1931       C  0.86576540  0.92175398  0.23300730    -0.05550
Co1932     Co  0.93218890  0.96823677  0.15855696     0.73820
N1933       N  0.96969127  0.59601644  0.15330592    -0.45740
C1934       C  0.56148345  0.92497120  0.22788837     0.43740
N1935       N  0.91306939  0.87806401  0.14801004    -0.45730
Co1936     Co  0.53011791  0.56374136  0.15787199     0.73890
C1937       C  0.61887551  0.57782287  0.14602104    -0.06050
C1938       C  0.52628048  0.53896605  0.28203418    -0.05620
N1939       N  0.93980912  0.90245385  0.19001793    -0.25140
N1940       N  0.58047776  0.62860707  0.23304124    -0.45910
H1941       H  0.61769245  0.99420104  0.22595637     0.07740
C1942       C  0.96569585  0.96913242  0.09865282    -0.06030
Cl1943     Cl  0.99440547  0.50323916  0.19065144    -0.49030
C1944       C  0.92761425  0.58081306  0.15292650     0.43500
H1945       H  0.93285951  0.84616520  0.20915651     0.07710
N1946       N  0.52863894  0.53172681  0.09911329    -0.45740
C1947       C  0.60118714  0.70530944  0.22964619    -0.04440
C1948       C  0.62192044  0.74113603  0.21171185    -0.01560
C1949       C  0.62563464  0.77897552  0.21961499     0.03430
C1950       C  0.63034848  0.78971404  0.24852549    -0.04440
C1951       C  0.60808136  0.75266825  0.26706874    -0.01550
C1952       C  0.59372746  0.71130022  0.25736352     0.03420
C1953       C  0.63287112  0.73807661  0.18331329     0.38070
C1954       C  0.59747545  0.75350806  0.29595012     0.38060
C1955       C  0.57065540  0.67460302  0.27609263     0.36490
C1956       C  0.59673929  0.78593087  0.20266966     0.36490
N1957       N  0.55246924  0.64570752  0.29117568    -0.38330
N1958       N  0.57213460  0.78930258  0.18914104    -0.38330
N1959       N  0.58925315  0.75094567  0.31946250    -0.37780
N1960       N  0.64174574  0.73591091  0.16060111    -0.37780
C1961       C  0.62364652  0.85412343  0.24418142    -0.04440
C1962       C  0.58554455  0.84396318  0.25842399    -0.01560
C1963       C  0.56639351  0.86792243  0.25349647     0.03430
C1964       C  0.58025250  0.89817769  0.23166063    -0.04440
C1965       C  0.61049540  0.90119630  0.21302972    -0.01550
C1966       C  0.63006808  0.87743131  0.21812353     0.03420
C1967       C  0.56448616  0.80985964  0.27874311     0.38070
C1968       C  0.62098417  0.92829583  0.18816803     0.38060
C1969       C  0.65338515  0.87491720  0.19500425     0.36490
C1970       C  0.53415461  0.86345090  0.27249320     0.36490
N1971       N  0.67134581  0.87293875  0.17622446    -0.38330
N1972       N  0.50883991  0.86016457  0.28775758    -0.38330
N1973       N  0.62946875  0.94995999  0.16837115    -0.37780
N1974       N  0.54264415  0.78387720  0.29478695    -0.37780
C1975       C  0.70341021  0.86639152  0.24571637    -0.04440
C1976       C  0.72512820  0.90664043  0.23064126    -0.01560
C1977       C  0.76366213  0.91997262  0.21618391     0.03430
C1978       C  0.78540536  0.89850747  0.22082359    -0.04440
C1979       C  0.76457784  0.86096699  0.23715515    -0.01550
C1980       C  0.73371423  0.85637101  0.25556463     0.03420
C1981       C  0.71541339  0.93918689  0.23366314     0.38070
C1982       C  0.78217711  0.83457096  0.24151765     0.38060
C1983       C  0.75685887  0.87953297  0.28067230     0.36490
C1984       C  0.77949394  0.95449051  0.19579578     0.36490
N1985       N  0.77685064  0.89997419  0.29957620    -0.38330
N1986       N  0.79044530  0.48068222  0.17858591    -0.38330
N1987       N  0.79613504  0.81333010  0.24497291    -0.37780
N1988       N  0.71081625  0.96760122  0.23413073    -0.37780
C1989       C  0.58888958  0.70602896  0.39906058    -0.04440
C1990       C  0.57751187  0.73074797  0.41395526    -0.01560
C1991       C  0.60341311  0.77564969  0.41347286     0.03430
C1992       C  0.63911014  0.79763880  0.39499480    -0.04440
C1993       C  0.65363332  0.77147730  0.38530621    -0.01550
C1994       C  0.62563837  0.72744887  0.38258501     0.03420
C1995       C  0.53762623  0.71018193  0.42885984     0.38070
C1996       C  0.69652257  0.78208780  0.39197453     0.38060
C1997       C  0.63941062  0.70474160  0.36616519     0.36490
C1998       C  0.59539301  0.79748456  0.43489603     0.36490
N1999       N  0.65136613  0.68771430  0.35283697    -0.38330
N2000       N  0.58862150  0.81404878  0.45233879    -0.38330
N2001       N  0.72943461  0.78727103  0.39806796    -0.37780
N2002       N  0.00555422  0.69456200  0.44032848    -0.37780
C2003       C  0.58504961  0.90400600  0.40460697    -0.04440
C2004       C  0.56611389  0.86481651  0.39072235    -0.01560
C2005       C  0.58952541  0.84540812  0.38646301     0.03430
C2006       C  0.63308985  0.86472211  0.39603593    -0.04440
C2007       C  0.64850615  0.90029926  0.41438930    -0.01550
C2008       C  0.62563464  0.92064182  0.41714994     0.03420
C2009       C  0.52415614  0.84625809  0.37761763     0.38070
C2010       C  0.68612408  0.91604402  0.43233987     0.38060
C2011       C  0.64442817  0.95919979  0.43334051     0.36490
C2012       C  0.56878554  0.80685290  0.37018044     0.36490
N2013       N  0.66053000  0.49015442  0.44605837    -0.38330
N2014       N  0.55038806  0.77548278  0.35798717    -0.38330
N2015       N  0.71571689  0.93009147  0.44717989    -0.37780
N2016       N  0.99087634  0.83090414  0.36688975    -0.37780
C2017       C  0.70804392  0.87422128  0.39663605    -0.04440
C2018       C  0.73859973  0.91347320  0.38298450    -0.01560
C2019       C  0.78236385  0.93036951  0.38670949     0.03430
C2020       C  0.79662428  0.91287963  0.40708468    -0.04440
C2021       C  0.76756117  0.87932533  0.42450460    -0.01550
C2022       C  0.72359632  0.86140092  0.42031185     0.03420
C2023       C  0.72729661  0.94011778  0.36735642     0.38070
C2024       C  0.78293224  0.86235393  0.44645156     0.38060
C2025       C  0.69596323  0.83295013  0.44220904     0.36490
C2026       C  0.81310577  0.96659451  0.36985247     0.36490
N2027       N  0.67607442  0.81076402  0.46057046    -0.38330
N2028       N  0.83772537  0.49518274  0.35633075    -0.38330
N2029       N  0.79519616  0.84876328  0.46381321    -0.37780
N2030       N  0.72318727  0.96528552  0.35534955    -0.37780
C2031       C  0.66032090  0.84506115  0.29009529    -0.04440
C2032       C  0.67705875  0.82525898  0.30806442    -0.01560
C2033       C  0.68519839  0.83493921  0.33678826     0.03430
C2034       C  0.66332002  0.85042380  0.35152151    -0.04440
C2035       C  0.65012084  0.87357780  0.33344028    -0.01550
C2036       C  0.65517598  0.87545067  0.30388024     0.03420
C2037       C  0.68817715  0.79556285  0.29814785     0.38070
C2038       C  0.63772273  0.90202729  0.34337458     0.38060
C2039       C  0.65843254  0.91174799  0.28896375     0.36490
C2040       C  0.72540764  0.84150390  0.34705190     0.36490
N2041       N  0.65923345  0.94122204  0.27959400    -0.38330
N2042       N  0.75879581  0.84790701  0.35312236    -0.38330
N2043       N  0.62896148  0.92656693  0.34884869    -0.37780
N2044       N  0.69709787  0.77185093  0.29090030    -0.37780
C2045       C  0.69671800  0.59558621  0.15602295    -0.04440
C2046       C  0.72921398  0.62431780  0.17417729    -0.01560
C2047       C  0.77242827  0.64327949  0.16702909     0.03430
C2048       C  0.78464282  0.63900640  0.13930239    -0.04440
C2049       C  0.74940144  0.61194319  0.12048912    -0.01550
C2050       C  0.70724477  0.58749099  0.13011787     0.03420
C2051       C  0.71821740  0.63566561  0.20012914     0.38070
C2052       C  0.75181785  0.61078970  0.09036411     0.38060
C2053       C  0.67376010  0.55420998  0.11269912     0.36490
C2054       C  0.80312233  0.66591447  0.18947251     0.36490
N2055       N  0.64726426  0.52771820  0.09890257    -0.38330
N2056       N  0.82513650  0.68306135  0.20860805    -0.38330
N2057       N  0.74931029  0.60781834  0.06617295    -0.37780
N2058       N  0.70949944  0.64506300  0.22063089    -0.37780
C2059       C  0.85243193  0.71311116  0.14247522    -0.04440
C2060       C  0.88996135  0.73481584  0.16025629    -0.01560
C2061       C  0.91198790  0.77904429  0.16301475     0.03430
C2062       C  0.89242042  0.80147291  0.15507970    -0.04440
C2063       C  0.85093398  0.77922681  0.14346320    -0.01550
C2064       C  0.83120127  0.73580636  0.13669252     0.03420
C2065       C  0.90474952  0.71331228  0.17886451     0.38070
C2066       C  0.82856847  0.80115032  0.13807697     0.38060
C2067       C  0.79028644  0.71627245  0.12201682     0.36490
C2068       C  0.95547437  0.80147211  0.17412253     0.36490
N2069       N  0.75781758  0.70165675  0.11025869    -0.38330
N2070       N  0.99009510  0.81913944  0.18284207    -0.38330
N2071       N  0.81072882  0.81861516  0.13383387    -0.37780
N2072       N  0.91715174  0.69734366  0.19423396    -0.37780
C2073       C  0.86097085  0.64734497  0.14198697    -0.04440
C2074       C  0.84618088  0.61111837  0.16071329    -0.01560
C2075       C  0.87264492  0.59537626  0.16770854     0.03430
C2076       C  0.90825881  0.60693646  0.15156720    -0.04440
C2077       C  0.92402708  0.64232880  0.13352068    -0.01550
C2078       C  0.90319963  0.66480150  0.13107420     0.03420
C2079       C  0.80368248  0.58615411  0.17177079     0.38070
C2080       C  0.96117198  0.65525806  0.11671310     0.38060
C2081       C  0.92661692  0.70643938  0.11770298     0.36490
C2082       C  0.86479804  0.56909715  0.19275960     0.36490
N2083       N  0.94741185  0.74038841  0.10845757    -0.38330
N2084       N  0.85956484  0.54932807  0.21317750    -0.38330
N2085       N  0.99052149  0.66540690  0.10311151    -0.37780
N2086       N  0.77019422  0.56412806  0.18105716    -0.37780
C2087       C  0.78994135  0.64697679  0.49397162    -0.04440
C2088       C  0.76108383  0.60287425  0.50191446    -0.01560
C2089       C  0.71688720  0.58123397  0.49558195     0.03430
C2090       C  0.69964129  0.60132827  0.48032404    -0.04440
C2091       C  0.72538938  0.64433631  0.47344323    -0.01550
C2092       C  0.76917533  0.66767810  0.48119197     0.03420
C2093       C  0.77505909  0.57649909  0.51493949     0.38070
C2094       C  0.70568572  0.66518121  0.45919735     0.38060
C2095       C  0.78858908  0.71305644  0.47761691     0.36490
C2096       C  0.68853837  0.53738129  0.50468376     0.36490
N2097       N  0.80044735  0.74863523  0.47442834    -0.38330
N2098       N  0.66589990  0.00258570  0.51204547    -0.38330
N2099       N  0.68990072  0.68167915  0.44808944    -0.37780
N2100       N  0.78148310  0.55134498  0.02441608    -0.37780
C2101       C  0.86701623  0.71843622  0.49274733    -0.04440
C2102       C  0.86915367  0.73136633  0.46399269    -0.01560
C2103       C  0.88702902  0.77469384  0.45681377     0.03430
C2104       C  0.90531002  0.80593868  0.47795711    -0.04440
C2105       C  0.91153223  0.79413814  0.00508006    -0.01550
C2106       C  0.89621878  0.75133757  0.01147677     0.03420
C2107       C  0.85053792  0.70071704  0.44162562     0.38070
C2108       C  0.93732392  0.82626317  0.02574442     0.38060
C2109       C  0.91932342  0.74305622  0.03326251     0.36490
C2110       C  0.88289801  0.78601892  0.42791452     0.36490
N2111       N  0.93916877  0.73657270  0.04948051    -0.38330
N2112       N  0.87928920  0.79471223  0.40487744    -0.38330
N2113       N  0.95791541  0.85177060  0.04224609    -0.37780
N2114       N  0.83636547  0.67828590  0.42266610    -0.37780
C2115       C  0.90758372  0.60586441  0.47982990    -0.04440
C2116       C  0.86663327  0.59045029  0.46773100    -0.01560
C2117       C  0.84512651  0.61240843  0.47141956     0.03430
C2118       C  0.86423707  0.64996718  0.48811974    -0.04440
C2119       C  0.90943981  0.66978151  0.99190443    -0.01550
C2120       C  0.92825602  0.64573418  0.49258767     0.03420
C2121       C  0.84686089  0.55260234  0.45080325     0.38070
C2122       C  0.93895329  0.71337682  0.98325559     0.38060
C2123       C  0.96842046  0.66263412  0.00784937     0.36490
C2124       C  0.80649043  0.59831406  0.45491980     0.36490
N2125       N  0.00021280  0.67643936  0.02034948    -0.38310
N2126       N  0.77593675  0.58629370  0.44123677    -0.38330
N2127       N  0.96354470  0.74760394  0.97573541    -0.37780
N2128       N  0.83078128  0.52262090  0.43710455    -0.37780
C2129       C  0.83938477  0.66708751  0.03565680    -0.04440
C2130       C  0.84803158  0.64007434  0.05308815    -0.01560
C2131       C  0.83875571  0.63514053  0.08224826     0.03430
C2132       C  0.83850105  0.66805952  0.09720961    -0.04440
C2133       C  0.84232924  0.70120803  0.07957151    -0.01550
C2134       C  0.82938369  0.69290890  0.05139953     0.03420
C2135       C  0.86362436  0.61457516  0.04311081     0.38070
C2136       C  0.87154750  0.74566970  0.08556216     0.38060
C2137       C  0.80999156  0.71535539  0.04023623     0.36490
C2138       C  0.82576547  0.59422483  0.09535991     0.36490
N2139       N  0.79422862  0.73453459  0.03481733    -0.38330
N2140       N  0.81496070  0.56109948  0.10493697    -0.38330
N2141       N  0.89549080  0.78149416  0.08902035    -0.37780
N2142       N  0.87478946  0.59178027  0.03806833    -0.37780
C2143       C  0.83991561  0.67007306  0.50208254    -0.01590
C2144       C  0.83369487  0.66653054  0.63056346    -0.01590
C2145       C  0.66085215  0.84693880  0.88540027    -0.01590
C2146       C  0.65452511  0.83909288  0.75686793    -0.01590
C2147       C  0.93047326  0.58291702  0.97738043     0.43350
N2148       N  0.94412793  0.53353554  0.97637087     0.02240
C2149       C  0.63825085  0.56187856  0.94332329    -0.05640
H2150       H  0.57578767  0.62489184  0.86969105     0.07730
C2151       C  0.95800338  0.97555082  0.84881718    -0.05990
Co2152     Co  0.53717089  0.56862894  0.97110180     0.74180
N2153       N  0.55979216  0.59535981  0.91068745    -0.25160
Co2154     Co  0.55705082  0.53805499  0.90751362     0.74070
C2155       C  0.98902060  0.50985064  0.83058961     0.43450
N2156       N  0.90496094  0.94784766  0.91613401     0.01860
N2157       N  0.51411367  0.51971990  0.87313379     0.01960
N2158       N  0.62407349  0.58072944  0.98425089    -0.46010
H2159       H  0.00173326  0.63450852  0.97326845     0.07720
N2160       N  0.55319789  0.60713948  0.93487869     0.02250
N2161       N  0.55156527  0.97901678  0.90586434     0.01990
C2162       C  0.56302339  0.92798108  0.90556622     0.43590
N2163       N  0.89858059  0.95906622  0.94063619    -0.24620
C2164       C  0.53676752  0.53695052  0.53346338    -0.05540
N2165       N  0.91252127  0.54034262  0.97807492    -0.45730
N2166       N  0.58225338  0.97084591  0.90473037    -0.45950
C2167       C  0.00563984  0.00117188  0.55095762     0.43370
N2168       N  0.59160040  0.56662199  0.96621476     0.02240
N2169       N  0.93515538  0.91729909  0.97030416    -0.24640
N2170       N  0.98162690  0.56895236  0.97457038    -0.25140
N2171       N  0.94294992  0.90720074  0.94589032     0.01870
H2172       H  0.90956408  0.88123098  0.50878500     0.07760
H2173       H  0.49162763  0.87793753  0.90955007     0.07800
N2174       N  0.59925581  0.55578691  0.94196138    -0.25180
N2175       N  0.97636728  0.98425158  0.87458103    -0.24800
N2176       N  0.98221358  0.99288618  0.50819581     0.02240
C2177       C  0.56889554  0.65987633  0.90661094     0.43640
C2178       C  0.85990379  0.95279177  0.94091933    -0.06050
N2179       N  0.51357057  0.94412530  0.90722554    -0.24800
H2180       H  0.92877876  0.94662085  0.84307481     0.07780
N2181       N  0.55885099  0.64537268  0.93338142    -0.46020
H2182       H  0.84499313  0.95644177  0.95887140     0.07770
C2183       C  0.92130360  0.85111583  0.97103216     0.43470
C2184       C  0.97634109  0.60172881  0.97489438    -0.05550
Co2185     Co  0.93960799  0.97528725  0.97430665     0.73820
N2186       N  0.87097907  0.93212792  0.89936804    -0.45740
C2187       C  0.65420769  0.57743485  0.97154993     0.43740
N2188       N  0.97263237  0.97561732  0.53377574    -0.45730
Co2189     Co  0.95894012  0.94558079  0.91061867     0.73890
C2190       C  0.51753598  0.91048688  0.90743742    -0.06050
C2191       C  0.56918524  0.62613515  0.89145548    -0.05620
N2192       N  0.51938607  0.52913729  0.50736537    -0.25140
N2193       N  0.52307845  0.53568564  0.84714391    -0.45910
H2194       H  0.65435858  0.55820308  0.92612226     0.07740
C2195       C  0.92100328  0.88354614  0.98777840    -0.06030
Cl2196     Cl  0.99834407  0.50692464  0.94090417    -0.49030
C2197       C  0.84195571  0.93505950  0.91382294     0.43500
H2198       H  0.56543440  0.56590310  0.53990903     0.07710
N2199       N  0.93523636  0.86838462  0.94554251    -0.45740
C2200       C  0.83196562  0.91970156  0.71472323     0.43350
N2201       N  0.89094939  0.95006163  0.69239001     0.02240
C2202       C  0.58389014  0.97114909  0.72678582    -0.05640
H2203       H  0.55623120  0.56679007  0.78818400     0.07730
C2204       C  0.56205177  0.64569333  0.69130146    -0.05990
Co2205     Co  0.95876675  0.94300432  0.72361597     0.74180
N2206       N  0.51720374  0.52092329  0.75668887    -0.25160
Co2207     Co  0.55715961  0.53772771  0.72219212     0.74070
C2208       C  0.58235111  0.66154282  0.71872044     0.43450
N2209       N  0.97344067  0.56254033  0.65438213     0.01860
N2210       N  0.56120337  0.59557608  0.71618629     0.01960
N2211       N  0.51941809  0.91027602  0.72834117    -0.46010
H2212       H  0.86312021  0.90737022  0.75353050     0.07720
N2213       N  0.97943228  0.98526246  0.75751071     0.02250
N2214       N  0.59612279  0.55375673  0.68780823     0.01990
C2215       C  0.65132188  0.57591876  0.66305691     0.43590
N2216       N  0.93630694  0.52626975  0.65468017    -0.24620
C2217       C  0.93065976  0.86267564  0.69073015    -0.05540
N2218       N  0.85026517  0.93806625  0.69001733    -0.45730
N2219       N  0.63516359  0.56113878  0.68872983    -0.45950
C2220       C  0.91340982  0.84664202  0.66294926     0.43370
N2221       N  0.51575087  0.94386064  0.72725067     0.02240
N2222       N  0.97306368  0.98634372  0.62424618    -0.24640
N2223       N  0.90095971  0.94070611  0.71732332    -0.25140
N2224       N  0.51023325  0.52257977  0.62399485     0.01870
H2225       H  0.93653045  0.94094343  0.59186661     0.07760
H2226       H  0.62106625  0.59099666  0.62512539     0.07800
N2227       N  0.55299209  0.97982465  0.72630680    -0.25180
N2228       N  0.55073341  0.60500880  0.69152560    -0.24800
N2229       N  0.92992093  0.91115175  0.66488021     0.02240
C2230       C  0.98998432  0.51013685  0.79941970     0.43640
C2231       C  0.90532269  0.53461840  0.65369939    -0.06050
N2232       N  0.58593572  0.56363529  0.66320317    -0.24800
H2233       H  0.55899166  0.66255143  0.67341697     0.07780
N2234       N  0.96243917  0.97725787  0.78287478    -0.46020
H2235       H  0.87156742  0.51132395  0.65404027     0.07770
C2236       C  0.00271036  0.99922150  0.58201325     0.43470
C2237       C  0.86576541  0.92175388  0.73300716    -0.05550
Co2238     Co  0.93218909  0.96823681  0.65855691     0.73820
N2239       N  0.96969121  0.59601640  0.65330598    -0.45740
C2240       C  0.56148357  0.92497122  0.72788847     0.43740
N2241       N  0.91306955  0.87806403  0.64801000    -0.45730
Co2242     Co  0.53011787  0.56374135  0.65787202     0.73890
C2243       C  0.61887548  0.57782290  0.64602106    -0.06050
C2244       C  0.52628047  0.53896602  0.78203419    -0.05620
N2245       N  0.93980926  0.90245386  0.69001789    -0.25140
N2246       N  0.58047775  0.62860702  0.73304129    -0.45910
H2247       H  0.61769256  0.99420107  0.72595649     0.07740
C2248       C  0.96569610  0.96913247  0.59865280    -0.06030
Cl2249     Cl  0.99440546  0.50323914  0.69065146    -0.49030
C2250       C  0.92761419  0.58081301  0.65292654     0.43500
H2251       H  0.93285959  0.84616519  0.70915649     0.07710
N2252       N  0.52863891  0.53172682  0.59911331    -0.45740
C2253       C  0.60118727  0.70530944  0.72964625    -0.04440
C2254       C  0.62192052  0.74113598  0.71171187    -0.01560
C2255       C  0.62563489  0.77897556  0.71961502     0.03430
C2256       C  0.63034874  0.78971413  0.74852552    -0.04440
C2257       C  0.60808175  0.75266837  0.76706881    -0.01550
C2258       C  0.59372779  0.71130032  0.75736362     0.03420
C2259       C  0.63287108  0.73807647  0.68331330     0.38070
C2260       C  0.59747592  0.75350826  0.79595020     0.38060
C2261       C  0.57065587  0.67460317  0.77609279     0.36490
C2262       C  0.59673993  0.78593129  0.70266954     0.36490
N2263       N  0.55246982  0.64570772  0.79117589    -0.38330
N2264       N  0.57213548  0.78930323  0.68914080    -0.38330
N2265       N  0.58925366  0.75094596  0.81946259    -0.37780
N2266       N  0.64174561  0.73591071  0.66060111    -0.37780
C2267       C  0.62364676  0.85412351  0.74418138    -0.04440
C2268       C  0.58554464  0.84396303  0.75842384    -0.01560
C2269       C  0.56639352  0.86792222  0.75349635     0.03430
C2270       C  0.58025265  0.89817771  0.73166066    -0.04440
C2271       C  0.61049578  0.90119661  0.71302982    -0.01550
C2272       C  0.63006850  0.87743165  0.71812358     0.03420
C2273       C  0.56448617  0.80985930  0.77874283     0.38070
C2274       C  0.62098470  0.92829638  0.68816824     0.38060
C2275       C  0.65338567  0.87491773  0.69500430     0.36490
C2276       C  0.53415440  0.86345038  0.77249300     0.36490
N2277       N  0.67134640  0.87293942  0.67622449    -0.38330
N2278       N  0.50883952  0.86016381  0.78775731    -0.38330
N2279       N  0.62946940  0.94996072  0.66837145    -0.37780
N2280       N  0.54264406  0.78387667  0.79478653    -0.37780
C2281       C  0.70341042  0.86639154  0.74571633    -0.04440
C2282       C  0.72512851  0.90664060  0.73064141    -0.01560
C2283       C  0.76366237  0.91997281  0.71618397     0.03430
C2284       C  0.78540543  0.89850744  0.72082336    -0.04440
C2285       C  0.76457777  0.86096674  0.73715469    -0.01550
C2286       C  0.73371433  0.85637072  0.75556434     0.03420
C2287       C  0.71541379  0.93918709  0.73366349     0.38070
C2288       C  0.78217689  0.83457053  0.74151687     0.38060
C2289       C  0.75685927  0.87953253  0.78067199     0.36490
C2290       C  0.77949423  0.95449088  0.69579598     0.36490
N2291       N  0.77685134  0.89997365  0.79957585    -0.38330
N2292       N  0.79044523  0.48068202  0.67858580    -0.38330
N2293       N  0.79613472  0.81332954  0.74497186    -0.37780
N2294       N  0.71081675  0.96760148  0.73413123    -0.37780
C2295       C  0.58888938  0.70602890  0.89906046    -0.04440
C2296       C  0.57751179  0.73074794  0.91395523    -0.01560
C2297       C  0.60341306  0.77564965  0.91347281     0.03430
C2298       C  0.63910999  0.79763876  0.89499468    -0.04440
C2299       C  0.65363301  0.77147721  0.88530591    -0.01550
C2300       C  0.62563800  0.72744879  0.88258473     0.03420
C2301       C  0.53762622  0.71018194  0.92885988     0.38070
C2302       C  0.69652231  0.78208766  0.89197397     0.38060
C2303       C  0.63941001  0.70474150  0.86616471     0.36490
C2304       C  0.59539314  0.79748454  0.93489607     0.36490
N2305       N  0.65136533  0.68771421  0.85283630    -0.38330
N2306       N  0.58862178  0.81404877  0.95233892    -0.38330
N2307       N  0.72943437  0.78727081  0.89806722    -0.37780
N2308       N  0.00555427  0.69456206  0.94032860    -0.37780
C2309       C  0.58504939  0.90400586  0.90460698    -0.04440
C2310       C  0.56611367  0.86481636  0.89072235    -0.01560
C2311       C  0.58952521  0.84540800  0.88646297     0.03430
C2312       C  0.63308963  0.86472199  0.89603592    -0.04440
C2313       C  0.64850581  0.90029895  0.91438942    -0.01550
C2314       C  0.62563438  0.92064161  0.91715000     0.03420
C2315       C  0.52415592  0.84625794  0.87761762     0.38070
C2316       C  0.68612338  0.91604325  0.93234029     0.38060
C2317       C  0.64442794  0.95919958  0.93334057     0.36490
C2318       C  0.56878541  0.80685285  0.87018035     0.36490
N2319       N  0.66053002  0.49015444  0.94605836    -0.38330
N2320       N  0.55038799  0.77548279  0.85798700    -0.38330
N2321       N  0.71571591  0.93009028  0.94718055    -0.37780
N2322       N  0.99087612  0.83090398  0.86688974    -0.37780
C2323       C  0.70804375  0.87422129  0.89663613    -0.04440
C2324       C  0.73859940  0.91347351  0.88298482    -0.01560
C2325       C  0.78236358  0.93037001  0.88670974     0.03430
C2326       C  0.79662417  0.91287983  0.90708459    -0.04440
C2327       C  0.76756119  0.87932515  0.92450433    -0.01550
C2328       C  0.72359630  0.86140065  0.92031169     0.03420
C2329       C  0.72729601  0.94011813  0.86735708     0.38070
C2330       C  0.78293243  0.86235351  0.94645101     0.38060
C2331       C  0.69596333  0.83294951  0.94220880     0.36490
C2332       C  0.81310536  0.96659546  0.86985299     0.36490
N2333       N  0.67607459  0.81076311  0.96057013    -0.38330
N2334       N  0.83772535  0.49518267  0.85633071    -0.38330
N2335       N  0.79519650  0.84876268  0.96381243    -0.37780
N2336       N  0.72318641  0.96528592  0.85535051    -0.37780
C2337       C  0.66032117  0.84506137  0.79009528    -0.04440
C2338       C  0.67705915  0.82525937  0.80806445    -0.01560
C2339       C  0.68519873  0.83493965  0.83678828     0.03430
C2340       C  0.66332011  0.85042399  0.85152151    -0.04440
C2341       C  0.65012081  0.87357786  0.83344025    -0.01550
C2342       C  0.65517601  0.87545075  0.80388021     0.03420
C2343       C  0.68817753  0.79556317  0.79814799     0.38070
C2344       C  0.63772242  0.90202714  0.84337452     0.38060
C2345       C  0.65843234  0.91174797  0.78896372     0.36490
C2346       C  0.72540811  0.84150471  0.84705194     0.36490
N2347       N  0.65923303  0.94122191  0.77959398    -0.38330
N2348       N  0.75879636  0.84790807  0.85312246    -0.38330
N2349       N  0.62896092  0.92656661  0.84884859    -0.37780
N2350       N  0.69709823  0.77185120  0.79090054    -0.37780
C2351       C  0.69671798  0.59558624  0.65602294    -0.04440
C2352       C  0.72921396  0.62431782  0.67417728    -0.01560
C2353       C  0.77242825  0.64327950  0.66702908     0.03430
C2354       C  0.78464279  0.63900640  0.63930238    -0.04440
C2355       C  0.74940141  0.61194319  0.62048910    -0.01550
C2356       C  0.70724474  0.58749102  0.63011786     0.03420
C2357       C  0.71821738  0.63566563  0.70012913     0.38070
C2358       C  0.75181783  0.61078967  0.59036410     0.38060
C2359       C  0.67376006  0.55421002  0.61269910     0.36490
C2360       C  0.80312230  0.66591447  0.68947250     0.36490
N2361       N  0.64726421  0.52771825  0.59890255    -0.38330
N2362       N  0.82513647  0.68306133  0.70860804    -0.38330
N2363       N  0.74931028  0.60781829  0.56617294    -0.37780
N2364       N  0.70949943  0.64506302  0.72063088    -0.37780
C2365       C  0.85243193  0.71311114  0.64247522    -0.04440
C2366       C  0.88996135  0.73481580  0.66025629    -0.01560
C2367       C  0.91198794  0.77904425  0.66301474     0.03430
C2368       C  0.89242049  0.80147291  0.65507968    -0.04440
C2369       C  0.85093404  0.77922683  0.64346318    -0.01550
C2370       C  0.83120130  0.73580637  0.63669251     0.03420
C2371       C  0.90474948  0.71331222  0.67886452     0.38070
C2372       C  0.82856857  0.80115037  0.63807696     0.38060
C2373       C  0.79028647  0.71627249  0.62201682     0.36490
C2374       C  0.95547441  0.80147204  0.67412252     0.36490
N2375       N  0.75781760  0.70165680  0.61025870    -0.38330
N2376       N  0.99009513  0.81913934  0.68284206    -0.38330
N2377       N  0.81072894  0.81861523  0.63383386    -0.37780
N2378       N  0.91715167  0.69734357  0.69423397    -0.37780
C2379       C  0.86097080  0.64734492  0.64198697    -0.04440
C2380       C  0.84618080  0.61111831  0.66071328    -0.01560
C2381       C  0.87264482  0.59537618  0.66770854     0.03430
C2382       C  0.90825873  0.60693640  0.65156722    -0.04440
C2383       C  0.92402703  0.64232874  0.63352070    -0.01550
C2384       C  0.90319959  0.66480144  0.63107421     0.03420
C2385       C  0.80368238  0.58615405  0.67177076     0.38070
C2386       C  0.96117194  0.65525800  0.61671314     0.38060
C2387       C  0.92661688  0.70643932  0.61770299     0.36490
C2388       C  0.86479788  0.56909702  0.69275958     0.36490
N2389       N  0.94741183  0.74038835  0.60845758    -0.38330
N2390       N  0.85956462  0.54932790  0.71317747    -0.38330
N2391       N  0.99052146  0.66540684  0.60311156    -0.37780
N2392       N  0.77019411  0.56412801  0.68105712    -0.37780
C2393       C  0.78994132  0.64697680  0.99397163    -0.04440
C2394       C  0.76108380  0.60287426  0.00191447    -0.01560
C2395       C  0.71688717  0.58123398  0.99558195     0.03430
C2396       C  0.69964127  0.60132828  0.98032404    -0.04440
C2397       C  0.72538936  0.64433632  0.97344323    -0.01550
C2398       C  0.76917531  0.66767812  0.98119198     0.03420
C2399       C  0.77505906  0.57649910  0.01493951     0.38070
C2400       C  0.70568570  0.66518123  0.95919736     0.38060
C2401       C  0.78858906  0.71305645  0.97761693     0.36490
C2402       C  0.68853834  0.53738129  0.00468375     0.36490
N2403       N  0.80044732  0.74863524  0.97442837    -0.38330
N2404       N  0.66589981  0.00258568  0.01204549    -0.38330
N2405       N  0.68990071  0.68167918  0.94808945    -0.37780
N2406       N  0.78148314  0.55134497  0.52441605    -0.37780
C2407       C  0.86701620  0.71843622  0.99274732    -0.04440
C2408       C  0.86915362  0.73136630  0.96399268    -0.01560
C2409       C  0.88702894  0.77469381  0.95681375     0.03430
C2410       C  0.90530991  0.80593866  0.97795708    -0.04440
C2411       C  0.91153231  0.79413813  0.50508009    -0.01550
C2412       C  0.89621882  0.75133755  0.51147679     0.03420
C2413       C  0.85053787  0.70071700  0.94162562     0.38070
C2414       C  0.93732401  0.82626315  0.52574445     0.38060
C2415       C  0.91932344  0.74305617  0.53326252     0.36490
C2416       C  0.88289791  0.78601887  0.92791449     0.36490
N2417       N  0.93916877  0.73657262  0.54948052    -0.38330
N2418       N  0.87928909  0.79471216  0.90487741    -0.38330
N2419       N  0.95791550  0.85177056  0.54224614    -0.37780
N2420       N  0.83636543  0.67828586  0.92266610    -0.37780
C2421       C  0.90758370  0.60586442  0.97982991    -0.04440
C2422       C  0.86663324  0.59045029  0.96773101    -0.01560
C2423       C  0.84512648  0.61240843  0.97141957     0.03430
C2424       C  0.86423705  0.64996718  0.98811975    -0.04440
C2425       C  0.90943984  0.66978151  0.49190443    -0.01550
C2426       C  0.92825599  0.64573419  0.99258767     0.03420
C2427       C  0.84686086  0.55260234  0.95080326     0.38070
C2428       C  0.93895331  0.71337682  0.48325558     0.38060
C2429       C  0.96842049  0.66263412  0.50784936     0.36490
C2430       C  0.80649039  0.59831405  0.95491981     0.36490
N2431       N  0.00021283  0.67643936  0.52034947    -0.38310
N2432       N  0.77593671  0.58629367  0.94123679    -0.38330
N2433       N  0.96354473  0.74760394  0.47573540    -0.37780
N2434       N  0.83078125  0.52262090  0.93710456    -0.37780
C2435       C  0.83938477  0.66708750  0.53565679    -0.04440
C2436       C  0.84803158  0.64007432  0.55308815    -0.01560
C2437       C  0.83875570  0.63514051  0.58224825     0.03430
C2438       C  0.83850103  0.66805950  0.59720961    -0.04440
C2439       C  0.84232922  0.70120801  0.57957150    -0.01550
C2440       C  0.82938368  0.69290888  0.55139952     0.03420
C2441       C  0.86362438  0.61457516  0.54311081     0.38070
C2442       C  0.87154749  0.74566967  0.58556215     0.38060
C2443       C  0.80999156  0.71535537  0.54023621     0.36490
C2444       C  0.82576545  0.59422481  0.59535990     0.36490
N2445       N  0.79422864  0.73453459  0.53481731    -0.38330
N2446       N  0.81496067  0.56109945  0.60493696    -0.38330
N2447       N  0.89549081  0.78149414  0.58902034    -0.37780
N2448       N  0.87478949  0.59178028  0.53806833    -0.37780
loop_ 
_geom_bond_atom_site_label_1 
_geom_bond_atom_site_label_2 
_geom_bond_distance 
_geom_bond_site_symmetry_2 
_ccdc_geom_bond_type 
C1          C293   1.599       .  S
C1          C557   1.615   1_554  S
C1          C571   1.583   1_554  S
C1          C588   1.612   1_554  S
C2          C212   1.605       .  S
C2          C223   1.602       .  S
C2          C237   1.592       .  S
C2          C296   1.599       .  S
C3          C156   1.620       .  S
C3          C170   1.590       .  S
C3          C181   1.571       .  S
C3          C198   1.616       .  S
C4          C114   1.616       .  S
C4          C125   1.613       .  S
C4          C139   1.635       .  S
C4          C195   1.596       .  S
C5           N23   1.354       .  A
C5           C42   1.463       .  S
C5          C279   1.498       .  S
N6           N23   1.329       .  A
N6           N28   1.317       .  A
N6         Co655   2.089   1_545  S
C7           N32   1.339       .  A
C7           C45   1.458       .  S
C7           H52   1.082       .  S
H8           C49   1.080       .  S
C9           N33   1.346       .  A
C9          C625   1.462       .  S
C9           H38   1.081       .  S
Co10         N18   2.095       .  S
Co10         N26   2.079       .  S
Co10       N1252   2.078   1_455  S
Co10        N356   2.112       .  S
Co10      Cl1278   2.444   1_455  S
N11          C49   1.343       .  A
N11          N18   1.319       .  A
N11         Co12   2.089       .  S
Co12         N15   2.105       .  S
Co12         N32   2.094       .  S
Co12        N631   2.100   1_545  S
Co12      Cl1278   2.457   1_455  S
C13        N1275   1.355       .  A
C13          C88   1.485       .  S
C13         C621   1.462   1_545  S
N14          N21   1.320       .  A
N14          N44   1.323       .  A
N14         Co47   2.072       .  S
N15          N51   1.329       .  A
N15        N1869   1.319   1_445  A
N16          C45   1.350       .  A
N16          N26   1.325       .  A
H17          C42   1.077       .  S
N18          N39   1.323       .  A
N19          N37   1.317       .  A
N19          N24   1.327       .  A
N19        Co624   2.100       .  S
C20          N24   1.358       .  A
C20          C48   1.455       .  S
C20         C167   1.497       .  S
N21          C36   1.326       .  A
N21         Co43   2.044       .  S
C22          N50   1.348       .  A
C22        C1861   1.469       .  S
C22          H56   1.081       .  S
C25          N46   1.349       .  A
C25          C94   1.482       .  S
C25        C1858   1.469       .  S
N26          N32   1.322       .  A
N27          C53   1.345       .  A
N27          N29   1.318       .  A
N27         Co43   2.088       .  S
N28          C42   1.334       .  A
N28       Co1234   2.078       .  S
N29          N57   1.315       .  A
N29         Co47   2.056       .  S
H30         C359   1.082   1_554  S
H31          C48   1.079   1_655  S
N33        N1851   1.319       .  A
N33         Co47   2.089       .  S
N34          N46   1.326       .  A
N34        N1886   1.321       .  A
N34        Co349   2.082   1_554  S
C35          N39   1.352       .  A
C35          C49   1.472       .  S
C35         C153   1.502       .  S
C36          C55   1.440       .  S
C36          H40   1.082       .  S
N37          C48   1.335       .  A
N37       Co1271   2.066   1_455  S
C41          N57   1.338       .  A
C41          C53   1.471       .  S
C41         C268   1.485       .  S
Co43        N618   2.089       .  S
Co43        N340   2.082       .  S
Co43       Cl666   2.456       .  S
N44          C55   1.349       .  A
C45         C254   1.481       .  S
Co47       N1261   2.066       .  S
Co47       Cl666   2.439       .  S
N50        N1870   1.321   1_445  A
N50        Co316   2.112   1_554  S
N51        C1237   1.355   1_455  A
C53         H336   1.082       .  S
Cl54      Co1234   2.444       .  S
Cl54      Co1236   2.457       .  S
Cl54       Co655   2.456   1_545  S
Cl54       Co659   2.439   1_545  S
C55         C184   1.456       .  S
C58          N76   1.349       .  A
C58          C95   1.472       .  S
C58         C142   1.503       .  S
N59          N76   1.329       .  A
N59          N81   1.323       .  A
N59         Co96   2.093       .  S
C60          N85   1.344       .  A
C60          C98   1.458       .  S
C60         H105   1.081       .  S
H61         C102   1.081       .  S
C62          N86   1.339       .  A
C62          C66   1.460       .  S
C62          H91   1.080       .  S
Co63         N81   2.111       .  S
Co63         N71   2.112       .  S
Co63        N103   2.069       .  S
Co63       N1303   2.098       .  S
Co63       Cl719   2.450       .  S
N64         C102   1.343       .  A
N64        N1907   1.322   1_445  A
N64         Co65   2.095       .  S
Co65         N68   2.087       .  S
Co65         N72   2.073       .  S
Co65        N697   2.080   1_545  S
Co65      Cl1331   2.459   1_455  S
C66         N104   1.353       .  A
C66         C111   1.494       .  S
N67          N74   1.321       .  A
N67          N97   1.324       .  A
N67       Co1324   2.079       .  S
N68          N86   1.320       .  A
N68         N104   1.326       .  A
N69          C98   1.352       .  A
N69          N79   1.326       .  A
H70          C95   1.081       .  S
N71          N92   1.331       .  A
N71        N1900   1.322       .  A
N72          N90   1.320       .  A
N72          N77   1.322       .  A
C73          N77   1.345       .  A
C73         C101   1.461       .  S
C73         C209   1.481       .  S
N74          C89   1.339       .  A
N74        Co708   2.085   1_545  S
C75         N103   1.331       .  A
C75          C78   1.451       .  S
C75         H109   1.081       .  S
C78          N99   1.355       .  A
C78         C226   1.484       .  S
N79          N85   1.319       .  A
N79       Co1287   2.098   1_455  S
N80         C106   1.345       .  A
N80        N1918   1.320       .  A
N80         Co96   2.103       .  S
N81          C95   1.346       .  A
N82         N110   1.328       .  A
N82        N1916   1.320   1_445  A
N82        Co100   2.090       .  S
H83         C106   1.081       .  S
H84         C101   1.081       .  S
N85        Co677   2.080       .  S
N86        Co100   2.082       .  S
N87          N99   1.328       .  A
N87         N103   1.321       .  A
N87         Co96   2.093       .  S
C88         N704   1.356   1_545  A
C88        C1326   1.460       .  S
C89         C108   1.459       .  S
C89          H93   1.081       .  S
N90         C101   1.339       .  A
N90        Co100   2.079       .  S
N92         C700   1.356       .  A
C94        N1946   1.351       .  A
C94         C106   1.466       .  S
Co96        N686   2.085       .  S
Co96       Cl719   2.462       .  S
N97         C108   1.348       .  A
C98         C128   1.492       .  S
Co100      N1291   2.079   1_455  S
Co100     Cl1331   2.451   1_455  S
C102       C1312   1.460   1_455  S
Cl107      Co675   2.450   1_545  S
Cl107     Co1289   2.459       .  S
Cl107      Co708   2.462   1_545  S
Cl107     Co1324   2.451       .  S
C108        C240   1.482       .  S
N110       C1930   1.351   1_545  A
C111        C112   1.407       .  A
C111        C116   1.405       .  A
C112        C113   1.402       .  A
C112        C117   1.449       .  S
C113        C114   1.424       .  A
C113        C120   1.446       .  S
C114        C115   1.457       .  A
C115        C116   1.423       .  A
C115        C118   1.448       .  S
C116        C119   1.458       .  S
C117        N124   1.157       .  T
C118        N123   1.157       .  T
C119        N121   1.158       .  T
C120        N122   1.158       .  T
C125        C126   1.441       .  A
C125        C130   1.442       .  A
C126        C127   1.415       .  A
C126        C131   1.441       .  S
C127        C128   1.400       .  A
C127        C134   1.457       .  S
C128        C129   1.407       .  A
C129        C130   1.422       .  A
C129        C132   1.452       .  S
C130        C133   1.456       .  S
C131        N138   1.156       .  T
C132        N137   1.157       .  T
C133        N135   1.158       .  T
C134        N136   1.157       .  T
C139        C140   1.448       .  A
C139        C144   1.422       .  A
C140        C141   1.432       .  A
C140        C145   1.447       .  S
C141        C142   1.413       .  A
C141        C148   1.447       .  S
C142        C143   1.406       .  A
C143        C144   1.398       .  A
C143        C146   1.446       .  S
C144        C147   1.457       .  S
C145        N152   1.157       .  T
C146        N151   1.157       .  T
C147        N149   1.157       .  T
C148        N762   1.156       .  T
N150        C760   1.156       .  T
C153        C154   1.413       .  A
C153        C158   1.409       .  A
C154        C155   1.418       .  A
C154        C159   1.452       .  S
C155        C156   1.441       .  A
C155        C162   1.454       .  S
C156        C157   1.431       .  A
C157        C158   1.406       .  A
C157        C160   1.448       .  S
C158        C161   1.452       .  S
C159       N1390   1.157       .  T
C160        N165   1.158       .  T
C161        N163   1.158       .  T
C162        N164   1.158       .  T
N166       C1383   1.157       .  T
C167        C168   1.414       .  A
C167        C172   1.408       .  A
C168        C169   1.414       .  A
C168        C173   1.453       .  S
C169        C170   1.441       .  A
C169        C176   1.453       .  S
C170        C171   1.442       .  A
C171        C172   1.415       .  A
C171        C174   1.452       .  S
C172        C175   1.453       .  S
C173       N1404   1.158   1_455  T
C174        N179   1.158       .  T
C175        N789   1.156       .  T
C176        N178   1.156       .  T
N177        C787   1.156       .  T
N180       C1397   1.158       .  T
C181        C182   1.439       .  A
C181        C186   1.431       .  A
C182        C183   1.402       .  A
C182        C187   1.445       .  S
C183        C184   1.392       .  A
C183        C190   1.456       .  S
C184        C185   1.405       .  A
C185        C186   1.406       .  A
C185        C188   1.455       .  S
C186        C189   1.451       .  S
C187        N194   1.157       .  T
C188        N193   1.157       .  T
C189        N191   1.157       .  T
C190        N804   1.157       .  T
N192        C802   1.157       .  T
C195        C196   1.439       .  A
C195        C200   1.424       .  A
C196        C197   1.407       .  A
C196        C201   1.463       .  S
C197        C198   1.428       .  A
C197        C204   1.448       .  S
C198        C199   1.448       .  A
C199        C200   1.420       .  A
C199        C202   1.454       .  S
C200        C203   1.454       .  S
C201        N208   1.158       .  T
C202        N207   1.158       .  T
C203        N205   1.157       .  T
C204        N206   1.158       .  T
C209        C210   1.402       .  A
C209        C214   1.393       .  A
C210        C211   1.415       .  A
C210        C215   1.455       .  S
C211        C212   1.449       .  A
C211        C218   1.452       .  S
C212        C213   1.452       .  A
C213        C214   1.411       .  A
C213        C216   1.443       .  S
C214        C217   1.459       .  S
C215        N222   1.158       .  T
C216        N221   1.156       .  T
C217        N219   1.157       .  T
C218        N220   1.157       .  T
C223        C224   1.442       .  A
C223        C228   1.444       .  A
C224        C225   1.404       .  A
C224        C229   1.455       .  S
C225        C226   1.404       .  A
C225        C232   1.457       .  S
C226        C227   1.407       .  A
C227        C228   1.418       .  A
C227        C230   1.452       .  S
C228        C231   1.453       .  S
C229        N236   1.158       .  T
C230        N235   1.157       .  T
C231        N233   1.158       .  T
C232        N234   1.158       .  T
C237        C238   1.444       .  A
C237        C242   1.447       .  A
C238        C239   1.412       .  A
C238        C243   1.447       .  S
C239        C240   1.400       .  A
C239        C246   1.453       .  S
C240        C241   1.400       .  A
C241        C242   1.408       .  A
C241        C244   1.453       .  S
C242        C245   1.451       .  S
C243        N250   1.158       .  T
C244        N249   1.157       .  T
C245        N247   1.156       .  T
C246        N248   1.157       .  T
C251        C307   1.615       .  S
C251        C252   1.451       .  A
C251        C256   1.458       .  A
C252        C253   1.417       .  A
C252        C257   1.448       .  S
C253        C254   1.393       .  A
C253        C260   1.456       .  S
C254        C255   1.395       .  A
C255        C256   1.419       .  A
C255        C258   1.460       .  S
C256        C259   1.448       .  S
C257        N570   1.157       .  T
C258        N263   1.158       .  T
C259        N261   1.159       .  T
C260        N874   1.157       .  T
N262        C872   1.157       .  T
N264        C563   1.157       .  T
C265        C307   1.583       .  S
C265        C266   1.427       .  A
C265        C576   1.437       .  A
C266        C267   1.415       .  A
C266        C271   1.450       .  S
C267        C268   1.420       .  A
C267        C274   1.454       .  S
C268        C575   1.402       .  A
C269        C270   1.404       .  A
C269        C574   1.402   1_554  A
C269        C272   1.453       .  S
C270        C571   1.437   1_554  A
C270        C273   1.452       .  S
C271        N278   1.157       .  T
C272        N277   1.157       .  T
C273        N275   1.156       .  T
C274        N276   1.158       .  T
C279        C280   1.417       .  A
C279        C284   1.406       .  A
C280        C281   1.429       .  A
C280        C285   1.451       .  S
C281        C282   1.438       .  A
C281        C288   1.450       .  S
C282        C307   1.612       .  S
C282        C589   1.436       .  A
C283        C588   1.436       .  A
C283        C590   1.395       .  A
C283        C286   1.450       .  S
C284        C589   1.395       .  A
C284        C593   1.452       .  S
C285        N292   1.157       .  T
C286        N291   1.158       .  T
C287        C590   1.452   1_554  S
C287        N289   1.157       .  T
C288        N290   1.158       .  T
C293        C294   1.440       .  A
C293        C298   1.436       .  A
C294        C295   1.424       .  A
C294        C299   1.444       .  S
C295        C296   1.440       .  A
C295        C302   1.456       .  S
C296        C297   1.416       .  A
C297        C298   1.397       .  A
C297        C300   1.449       .  S
C298        C301   1.443       .  S
C299        N306   1.157       .  T
C300        N305   1.158       .  T
C301        N303   1.157       .  T
C302        N304   1.158       .  T
C307        C599   1.599       .  S
C308        C518   1.605       .  S
C308        C529   1.602       .  S
C308        C543   1.592       .  S
C308        C602   1.599       .  S
C309        C462   1.620       .  S
C309        C476   1.590       .  S
C309        C487   1.571       .  S
C309        C504   1.616       .  S
C310        C420   1.616       .  S
C310        C431   1.613       .  S
C310        C445   1.635       .  S
C310        C501   1.596       .  S
C311        N329   1.354       .  A
C311        C348   1.463       .  S
C311        C585   1.498       .  S
N312        N329   1.329       .  A
N312        N334   1.317       .  A
N312       Co961   2.089   1_545  S
C313        N338   1.339       .  A
C313        C351   1.458       .  S
C313        H358   1.082       .  S
H314        C355   1.080       .  S
C315        N339   1.346       .  A
C315        C931   1.462       .  S
C315        H344   1.081       .  S
Co316      N1558   2.078   1_455  S
Co316       N324   2.095       .  S
Co316       N332   2.079       .  S
Co316     Cl1584   2.444   1_455  S
N317        C355   1.343       .  A
N317        N324   1.319       .  A
N317       Co318   2.089       .  S
Co318       N321   2.105       .  S
Co318       N338   2.094       .  S
Co318       N937   2.100   1_545  S
Co318     Cl1584   2.457   1_455  S
C319       N1581   1.355       .  A
C319        C927   1.462   1_545  S
C319        C394   1.485       .  S
N320        N327   1.320       .  A
N320        N350   1.323       .  A
N320       Co353   2.072       .  S
N321       N2175   1.319   1_445  A
N321        N357   1.329       .  A
N322        C351   1.350       .  A
N322        N332   1.325       .  A
H323        C348   1.077       .  S
N324        N345   1.323       .  A
N325        N343   1.317       .  A
N325        N330   1.327       .  A
N325       Co930   2.100       .  S
C326        N330   1.358       .  A
C326        C354   1.455       .  S
C326        C473   1.497       .  S
N327        C342   1.326       .  A
N327       Co349   2.044       .  S
C328        N356   1.348       .  A
C328       C2167   1.469       .  S
C328        H362   1.081       .  S
C331        N352   1.349       .  A
C331       C2164   1.469       .  S
C331        C400   1.482       .  S
N332        N338   1.322       .  A
N333        C359   1.345       .  A
N333        N335   1.318       .  A
N333       Co349   2.088       .  S
N334        C348   1.334       .  A
N334      Co1540   2.078       .  S
N335        N363   1.315       .  A
N335       Co353   2.056       .  S
H337        C354   1.079   1_655  S
N339       N2157   1.319       .  A
N339       Co353   2.089       .  S
N340        N352   1.326       .  A
N340       N2192   1.321       .  A
C341        N345   1.352       .  A
C341        C355   1.472       .  S
C341        C459   1.502       .  S
C342        C361   1.440       .  S
C342        H346   1.082       .  S
N343        C354   1.335       .  A
N343      Co1577   2.066   1_455  S
C347        N363   1.338       .  A
C347        C359   1.471       .  S
C347        C574   1.485       .  S
Co349       N924   2.089       .  S
Co349      Cl972   2.456       .  S
N350        C361   1.349       .  A
C351        C560   1.481       .  S
Co353      N1567   2.066       .  S
Co353      Cl972   2.439       .  S
N356       N2176   1.321   1_445  A
N357       C1543   1.355   1_455  A
Cl360     Co1540   2.444       .  S
Cl360     Co1542   2.457       .  S
Cl360      Co961   2.456   1_545  S
Cl360      Co965   2.439   1_545  S
C361        C490   1.456       .  S
C364        N382   1.349       .  A
C364        C401   1.472       .  S
C364        C448   1.503       .  S
N365        N382   1.329       .  A
N365        N387   1.323       .  A
N365       Co402   2.093       .  S
C366        N391   1.344       .  A
C366        C404   1.458       .  S
C366        H411   1.081       .  S
H367        C408   1.081       .  S
C368        N392   1.339       .  A
C368        C372   1.460       .  S
C368        H397   1.080       .  S
Co369       N387   2.111       .  S
Co369       N377   2.112       .  S
Co369       N409   2.069       .  S
Co369      N1609   2.098       .  S
Co369     Cl1025   2.450       .  S
N370        C408   1.343       .  A
N370       N2213   1.322   1_445  A
N370       Co371   2.095       .  S
Co371       N374   2.087       .  S
Co371      N1003   2.080   1_545  S
Co371       N378   2.073       .  S
Co371     Cl1637   2.459   1_455  S
C372        N410   1.353       .  A
C372        C417   1.494       .  S
N373        N380   1.321       .  A
N373        N403   1.324       .  A
N373      Co1630   2.079       .  S
N374        N392   1.320       .  A
N374        N410   1.326       .  A
N375        C404   1.352       .  A
N375        N385   1.326       .  A
H376        C401   1.081       .  S
N377       N2206   1.322       .  A
N377        N398   1.331       .  A
N378        N396   1.320       .  A
N378        N383   1.322       .  A
C379        N383   1.345       .  A
C379        C407   1.461       .  S
C379        C515   1.481       .  S
N380        C395   1.339       .  A
N380      Co1014   2.085   1_545  S
C381        N409   1.331       .  A
C381        C384   1.451       .  S
C381        H415   1.081       .  S
C384        N405   1.355       .  A
C384        C532   1.484       .  S
N385        N391   1.319       .  A
N385      Co1593   2.098   1_455  S
N386        C412   1.345       .  A
N386       N2224   1.320       .  A
N386       Co402   2.103       .  S
N387        C401   1.346       .  A
N388       N2222   1.320   1_445  A
N388        N416   1.328       .  A
N388       Co406   2.090       .  S
H389        C412   1.081       .  S
H390        C407   1.081       .  S
N391       Co983   2.080       .  S
N392       Co406   2.082       .  S
N393        N405   1.328       .  A
N393        N409   1.321       .  A
N393       Co402   2.093       .  S
C394       N1010   1.356   1_545  A
C394       C1632   1.460       .  S
C395        C414   1.459       .  S
C395        H399   1.081       .  S
N396        C407   1.339       .  A
N396       Co406   2.079       .  S
N398       C1006   1.356       .  A
C400       N2252   1.351       .  A
C400        C412   1.466       .  S
Co402       N992   2.085       .  S
Co402     Cl1025   2.462       .  S
N403        C414   1.348       .  A
C404        C434   1.492       .  S
Co406      N1597   2.079   1_455  S
Co406     Cl1637   2.451   1_455  S
C408       C1618   1.460   1_455  S
Cl413      Co981   2.450   1_545  S
Cl413     Co1595   2.459       .  S
Cl413     Co1014   2.462   1_545  S
Cl413     Co1630   2.451       .  S
C414        C546   1.482       .  S
N416       C2236   1.351   1_545  A
C417        C418   1.407       .  A
C417        C422   1.405       .  A
C418        C419   1.402       .  A
C418        C423   1.449       .  S
C419        C420   1.424       .  A
C419        C426   1.446       .  S
C420        C421   1.457       .  A
C421        C422   1.423       .  A
C421        C424   1.448       .  S
C422        C425   1.458       .  S
C423        N430   1.157       .  T
C424        N429   1.157       .  T
C425        N427   1.158       .  T
C426        N428   1.158       .  T
C431        C432   1.441       .  A
C431        C436   1.442       .  A
C432        C433   1.415       .  A
C432        C437   1.441       .  S
C433        C434   1.400       .  A
C433        C440   1.457       .  S
C434        C435   1.407       .  A
C435        C436   1.422       .  A
C435        C438   1.452       .  S
C436        C439   1.456       .  S
C437        N444   1.156       .  T
C438        N443   1.157       .  T
C439        N441   1.158       .  T
C440        N442   1.157       .  T
C445        C446   1.448       .  A
C445        C450   1.422       .  A
C446        C447   1.432       .  A
C446        C451   1.447       .  S
C447        C448   1.413       .  A
C447        C454   1.447       .  S
C448        C449   1.406       .  A
C449        C450   1.398       .  A
C449        C452   1.446       .  S
C450        C453   1.457       .  S
C451        N458   1.157       .  T
C452        N457   1.157       .  T
C453        N455   1.157       .  T
C454       N1068   1.156       .  T
N456       C1066   1.156       .  T
C459        C460   1.413       .  A
C459        C464   1.409       .  A
C460        C461   1.418       .  A
C460        C465   1.452       .  S
C461        C462   1.441       .  A
C461        C468   1.454       .  S
C462        C463   1.431       .  A
C463        C464   1.406       .  A
C463        C466   1.448       .  S
C464        C467   1.452       .  S
C465       N1696   1.157       .  T
C466        N471   1.158       .  T
C467        N469   1.158       .  T
C468        N470   1.158       .  T
N472       C1689   1.157       .  T
C473        C474   1.414       .  A
C473        C478   1.408       .  A
C474        C475   1.414       .  A
C474        C479   1.453       .  S
C475        C476   1.441       .  A
C475        C482   1.453       .  S
C476        C477   1.442       .  A
C477        C478   1.415       .  A
C477        C480   1.452       .  S
C478        C481   1.453       .  S
C479       N1710   1.158   1_455  T
C480        N485   1.158       .  T
C481       N1095   1.156       .  T
C482        N484   1.156       .  T
N483       C1093   1.156       .  T
N486       C1703   1.158       .  T
C487        C488   1.439       .  A
C487        C492   1.431       .  A
C488        C489   1.402       .  A
C488        C493   1.445       .  S
C489        C490   1.392       .  A
C489        C496   1.456       .  S
C490        C491   1.405       .  A
C491        C492   1.406       .  A
C491        C494   1.455       .  S
C492        C495   1.451       .  S
C493        N500   1.157       .  T
C494        N499   1.157       .  T
C495        N497   1.157       .  T
C496       N1110   1.157       .  T
N498       C1108   1.157       .  T
C501        C502   1.439       .  A
C501        C506   1.424       .  A
C502        C503   1.407       .  A
C502        C507   1.463       .  S
C503        C504   1.428       .  A
C503        C510   1.448       .  S
C504        C505   1.448       .  A
C505        C506   1.420       .  A
C505        C508   1.454       .  S
C506        C509   1.454       .  S
C507        N514   1.158       .  T
C508        N513   1.158       .  T
C509        N511   1.157       .  T
C510        N512   1.158       .  T
C515        C516   1.402       .  A
C515        C520   1.393       .  A
C516        C517   1.415       .  A
C516        C521   1.455       .  S
C517        C518   1.449       .  A
C517        C524   1.452       .  S
C518        C519   1.452       .  A
C519        C520   1.411       .  A
C519        C522   1.443       .  S
C520        C523   1.459       .  S
C521        N528   1.158       .  T
C522        N527   1.156       .  T
C523        N525   1.157       .  T
C524        N526   1.157       .  T
C529        C530   1.442       .  A
C529        C534   1.444       .  A
C530        C531   1.404       .  A
C530        C535   1.455       .  S
C531        C532   1.404       .  A
C531        C538   1.457       .  S
C532        C533   1.407       .  A
C533        C534   1.418       .  A
C533        C536   1.452       .  S
C534        C537   1.453       .  S
C535        N542   1.158       .  T
C536        N541   1.157       .  T
C537        N539   1.158       .  T
C538        N540   1.158       .  T
C543        C544   1.444       .  A
C543        C548   1.447       .  A
C544        C545   1.412       .  A
C544        C549   1.447       .  S
C545        C546   1.400       .  A
C545        C552   1.453       .  S
C546        C547   1.400       .  A
C547        C548   1.408       .  A
C547        C550   1.453       .  S
C548        C551   1.451       .  S
C549        N556   1.158       .  T
C550        N555   1.157       .  T
C551        N553   1.156       .  T
C552        N554   1.157       .  T
C557        C558   1.451   1_556  A
C557        C562   1.458       .  A
C558        C559   1.417   1_554  A
C558        C563   1.448       .  S
C559        C560   1.393       .  A
C559        C566   1.456   1_556  S
C560        C561   1.395       .  A
C561        C562   1.419       .  A
C561        C564   1.460       .  S
C562        C565   1.448       .  S
C564        N569   1.158       .  T
C565        N567   1.159       .  T
C566       N1180   1.157       .  T
N568       C1178   1.157       .  T
C571        C572   1.427       .  A
C572        C573   1.415       .  A
C572        C577   1.450       .  S
C573        C574   1.420       .  A
C573        C580   1.454       .  S
C575        C576   1.404       .  A
C575        C578   1.453       .  S
C576        C579   1.452       .  S
C577        N584   1.157       .  T
C578        N583   1.157       .  T
C579        N581   1.156       .  T
C580        N582   1.158       .  T
C585        C586   1.417       .  A
C585        C590   1.406       .  A
C586        C587   1.429       .  A
C586        C591   1.451       .  S
C587        C588   1.438       .  A
C587        C594   1.450       .  S
C589        C592   1.450       .  S
C591        N598   1.157       .  T
C592        N597   1.158       .  T
C593        N595   1.157       .  T
C594        N596   1.158       .  T
C599        C600   1.440       .  A
C599        C604   1.436       .  A
C600        C601   1.424       .  A
C600        C605   1.444       .  S
C601        C602   1.440       .  A
C601        C608   1.456       .  S
C602        C603   1.416       .  A
C603        C604   1.397       .  A
C603        C606   1.449       .  S
C604        C607   1.443       .  S
C605        N612   1.157       .  T
C606        N611   1.158       .  T
C607        N609   1.157       .  T
C608        N610   1.158       .  T
C613       C1169   1.615   1_554  S
C613       C1183   1.583   1_554  S
C613       C1200   1.612   1_554  S
C613        C905   1.599       .  S
C614        C824   1.605       .  S
C614        C835   1.602       .  S
C614        C849   1.592       .  S
C614        C908   1.599       .  S
C615        C768   1.620       .  S
C615        C782   1.590       .  S
C615        C793   1.571       .  S
C615        C810   1.616       .  S
C616        C726   1.616       .  S
C616        C737   1.613       .  S
C616        C751   1.635       .  S
C616        C807   1.596       .  S
C617        N635   1.354       .  A
C617        C654   1.463       .  S
C617        C891   1.498       .  S
N618        N635   1.329       .  A
N618        N640   1.317       .  A
C619        N644   1.339       .  A
C619        C657   1.458       .  S
C619        H664   1.082       .  S
H620        C661   1.080       .  S
C621        N645   1.346       .  A
C621        H650   1.081       .  S
Co622      N1864   2.078   1_455  S
Co622       N630   2.095       .  S
Co622       N968   2.112       .  S
Co622       N638   2.079       .  S
Co622     Cl1890   2.444   1_455  S
N623        C661   1.343       .  A
N623        N630   1.319       .  A
N623       Co624   2.089       .  S
Co624       N627   2.105       .  S
Co624       N644   2.093       .  S
Co624     Cl1890   2.457   1_455  S
C625       N1887   1.355       .  A
C625        C700   1.485       .  S
N626        N633   1.320       .  A
N626        N656   1.323       .  A
N626       Co659   2.072       .  S
N627       N1257   1.319   1_455  A
N627        N663   1.329       .  A
N628        C657   1.350       .  A
N628        N638   1.325       .  A
H629        C654   1.077       .  S
N630        N651   1.323       .  A
N631        N649   1.317       .  A
N631        N636   1.327       .  A
C632        N636   1.358       .  A
C632        C660   1.455       .  S
C632        C779   1.497       .  S
N633        C648   1.326       .  A
N633       Co655   2.044       .  S
C634        N662   1.348       .  A
C634       C1249   1.469       .  S
C634        H668   1.081       .  S
C637        N658   1.349   1_545  A
C637       C1246   1.469       .  S
C637        C706   1.482   1_545  S
N638        N644   1.322       .  A
N639        C665   1.345       .  A
N639        N641   1.318       .  A
N639       Co655   2.088       .  S
N640        C654   1.334       .  A
N640      Co1846   2.078       .  S
N641        N669   1.315       .  A
N641       Co659   2.056       .  S
H642        C971   1.082   1_554  S
H643        C660   1.079   1_655  S
N645       N1239   1.319   1_565  A
N645       Co659   2.089       .  S
N646        N658   1.326       .  A
N646       N1274   1.321   1_565  A
N646       Co961   2.082   1_554  S
C647        N651   1.352       .  A
C647        C661   1.472       .  S
C647        C765   1.502       .  S
C648        C667   1.440       .  S
C648        H652   1.082       .  S
N649        C660   1.335       .  A
N649      Co1883   2.066   1_455  S
C653        N669   1.338       .  A
C653        C665   1.471       .  S
C653        C880   1.485       .  S
Co655       N952   2.082       .  S
N656        C667   1.349       .  A
C657        C866   1.481       .  S
Co659      N1873   2.066       .  S
N662       N1258   1.321   1_455  A
N662       Co928   2.112   1_554  S
N663       C1849   1.355   1_455  A
C665        H948   1.082       .  S
Cl666     Co1846   2.444       .  S
Cl666     Co1848   2.457       .  S
C667        C796   1.456       .  S
C670        N688   1.349       .  A
C670        C707   1.472       .  S
C670        C754   1.503       .  S
N671        N688   1.329       .  A
N671        N693   1.323       .  A
N671       Co708   2.093       .  S
C672        N697   1.344       .  A
C672        C710   1.458       .  S
C672        H717   1.081       .  S
H673        C714   1.081       .  S
C674        N698   1.339       .  A
C674        C678   1.460       .  S
C674        H703   1.080       .  S
Co675       N693   2.111       .  S
Co675       N683   2.112       .  S
Co675       N715   2.069       .  S
Co675      N1915   2.098       .  S
N676        C714   1.343       .  A
N676       N1295   1.322   1_455  A
N676       Co677   2.095       .  S
Co677       N680   2.087       .  S
Co677       N684   2.073       .  S
Co677     Cl1943   2.459   1_455  S
C678        N716   1.353       .  A
C678        C723   1.494       .  S
N679        N686   1.321       .  A
N679        N709   1.324       .  A
N679      Co1936   2.079       .  S
N680        N698   1.320       .  A
N680        N716   1.326       .  A
N681        C710   1.352       .  A
N681        N691   1.326       .  A
H682        C707   1.081       .  S
N683       N1288   1.322   1_565  A
N683        N704   1.331       .  A
N684        N702   1.320       .  A
N684        N689   1.322       .  A
C685        N689   1.345       .  A
C685        C713   1.461       .  S
C685        C821   1.481       .  S
N686        C701   1.339       .  A
C687        N715   1.331       .  A
C687        C690   1.451       .  S
C687        H721   1.081       .  S
C690        N711   1.355       .  A
C690        C838   1.484       .  S
N691        N697   1.319       .  A
N691      Co1899   2.098   1_455  S
N692        C718   1.345       .  A
N692       N1306   1.320   1_565  A
N692       Co708   2.103       .  S
N693        C707   1.346       .  A
N694       N1304   1.320   1_455  A
N694        N722   1.328       .  A
N694       Co712   2.090       .  S
H695        C718   1.081       .  S
H696        C713   1.081       .  S
N698       Co712   2.082       .  S
N699        N711   1.328       .  A
N699        N715   1.321       .  A
N699       Co708   2.093       .  S
C700       C1938   1.460       .  S
C701        C720   1.459       .  S
C701        H705   1.081       .  S
N702        C713   1.339       .  A
N702       Co712   2.079       .  S
C706       N1334   1.351   1_565  A
C706        C718   1.466       .  S
N709        C720   1.348       .  A
C710        C740   1.492       .  S
Co712      N1903   2.079   1_455  S
Co712     Cl1943   2.451   1_455  S
C714       C1924   1.460   1_455  S
Cl719     Co1901   2.459       .  S
Cl719     Co1936   2.451       .  S
C720        C852   1.482       .  S
N722       C1318   1.351       .  A
C723        C724   1.407       .  A
C723        C728   1.405       .  A
C724        C725   1.402       .  A
C724        C729   1.449       .  S
C725        C726   1.424       .  A
C725        C732   1.446       .  S
C726        C727   1.457       .  A
C727        C728   1.423       .  A
C727        C730   1.448       .  S
C728        C731   1.458       .  S
C729        N736   1.157       .  T
C730        N735   1.157       .  T
C731        N733   1.158       .  T
C732        N734   1.158       .  T
C737        C738   1.441       .  A
C737        C742   1.442       .  A
C738        C739   1.415       .  A
C738        C743   1.441       .  S
C739        C740   1.400       .  A
C739        C746   1.457       .  S
C740        C741   1.407       .  A
C741        C742   1.422       .  A
C741        C744   1.452       .  S
C742        C745   1.456       .  S
C743        N750   1.156       .  T
C744        N749   1.157       .  T
C745        N747   1.158       .  T
C746        N748   1.157       .  T
C751        C752   1.448       .  A
C751        C756   1.422       .  A
C752        C753   1.432       .  A
C752        C757   1.447       .  S
C753        C754   1.413       .  A
C753        C760   1.447       .  S
C754        C755   1.406       .  A
C755        C756   1.398       .  A
C755        C758   1.446       .  S
C756        C759   1.457       .  S
C757        N764   1.157       .  T
C758        N763   1.157       .  T
C759        N761   1.157       .  T
C765        C766   1.413       .  A
C765        C770   1.409       .  A
C766        C767   1.418       .  A
C766        C771   1.452       .  S
C767        C768   1.441       .  A
C767        C774   1.454       .  S
C768        C769   1.431       .  A
C769        C770   1.406       .  A
C769        C772   1.448       .  S
C770        C773   1.452       .  S
C771       N2002   1.157       .  T
C772        N777   1.158       .  T
C773        N775   1.158       .  T
C774        N776   1.158       .  T
N778       C1995   1.157       .  T
C779        C780   1.414       .  A
C779        C784   1.408       .  A
C780        C781   1.414       .  A
C780        C785   1.453       .  S
C781        C782   1.441       .  A
C781        C788   1.453       .  S
C782        C783   1.442       .  A
C783        C784   1.415       .  A
C783        C786   1.452       .  S
C784        C787   1.453       .  S
C785       N2016   1.158   1_455  T
C786        N791   1.158       .  T
C788        N790   1.156       .  T
N792       C2009   1.158       .  T
C793        C794   1.439       .  A
C793        C798   1.431       .  A
C794        C795   1.402       .  A
C794        C799   1.445       .  S
C795        C796   1.392       .  A
C795        C802   1.456       .  S
C796        C797   1.405       .  A
C797        C798   1.406       .  A
C797        C800   1.455       .  S
C798        C801   1.451       .  S
C799        N806   1.157       .  T
C800        N805   1.157       .  T
C801        N803   1.157       .  T
C807        C808   1.439       .  A
C807        C812   1.424       .  A
C808        C809   1.407       .  A
C808        C813   1.463       .  S
C809        C810   1.428       .  A
C809        C816   1.448       .  S
C810        C811   1.448       .  A
C811        C812   1.420       .  A
C811        C814   1.454       .  S
C812        C815   1.454       .  S
C813        N820   1.158       .  T
C814        N819   1.158       .  T
C815        N817   1.157       .  T
C816        N818   1.158       .  T
C821        C822   1.402       .  A
C821        C826   1.393       .  A
C822        C823   1.415       .  A
C822        C827   1.455       .  S
C823        C824   1.449       .  A
C823        C830   1.452       .  S
C824        C825   1.452       .  A
C825        C826   1.411       .  A
C825        C828   1.443       .  S
C826        C829   1.459       .  S
C827        N834   1.158       .  T
C828        N833   1.156       .  T
C829        N831   1.157       .  T
C830        N832   1.157       .  T
C835        C836   1.442       .  A
C835        C840   1.444       .  A
C836        C837   1.404       .  A
C836        C841   1.455       .  S
C837        C838   1.404       .  A
C837        C844   1.457       .  S
C838        C839   1.407       .  A
C839        C840   1.418       .  A
C839        C842   1.452       .  S
C840        C843   1.453       .  S
C841        N848   1.158       .  T
C842        N847   1.157       .  T
C843        N845   1.158       .  T
C844        N846   1.158       .  T
C849        C850   1.444       .  A
C849        C854   1.447       .  A
C850        C851   1.412       .  A
C850        C855   1.447       .  S
C851        C852   1.400       .  A
C851        C858   1.453       .  S
C852        C853   1.400       .  A
C853        C854   1.408       .  A
C853        C856   1.453       .  S
C854        C857   1.451       .  S
C855        N862   1.158       .  T
C856        N861   1.157       .  T
C857        N859   1.156       .  T
C858        N860   1.157       .  T
C863        C919   1.615       .  S
C863        C864   1.451       .  A
C863        C868   1.458       .  A
C864        C865   1.417       .  A
C864        C869   1.448       .  S
C865        C866   1.393       .  A
C865        C872   1.456       .  S
C866        C867   1.395       .  A
C867        C868   1.419       .  A
C867        C870   1.460       .  S
C868        C871   1.448       .  S
C869       N1182   1.157       .  T
C870        N875   1.158       .  T
C871        N873   1.159       .  T
N876       C1175   1.157       .  T
C877        C919   1.583       .  S
C877        C878   1.427       .  A
C877       C1188   1.437       .  A
C878        C879   1.415       .  A
C878        C883   1.450       .  S
C879        C880   1.420       .  A
C879        C886   1.454       .  S
C880       C1187   1.402       .  A
C881       C1186   1.402   1_554  A
C881        C882   1.404       .  A
C881        C884   1.453       .  S
C882       C1183   1.437   1_554  A
C882        C885   1.452       .  S
C883        N890   1.157       .  T
C884        N889   1.157       .  T
C885        N887   1.156       .  T
C886        N888   1.158       .  T
C891        C892   1.417       .  A
C891        C896   1.406       .  A
C892        C893   1.429       .  A
C892        C897   1.451       .  S
C893        C894   1.438       .  A
C893        C900   1.450       .  S
C894        C919   1.612       .  S
C894       C1201   1.436       .  A
C895       C1200   1.436       .  A
C895       C1202   1.395       .  A
C895        C898   1.450       .  S
C896       C1201   1.395       .  A
C896       C1205   1.452       .  S
C897        N904   1.157       .  T
C898        N903   1.158       .  T
C899       C1202   1.452   1_554  S
C899        N901   1.157       .  T
C900        N902   1.158       .  T
C905        C906   1.440       .  A
C905        C910   1.436       .  A
C906        C907   1.424       .  A
C906        C911   1.444       .  S
C907        C908   1.440       .  A
C907        C914   1.456       .  S
C908        C909   1.416       .  A
C909        C910   1.397       .  A
C909        C912   1.449       .  S
C910        C913   1.443       .  S
C911        N918   1.157       .  T
C912        N917   1.158       .  T
C913        N915   1.157       .  T
C914        N916   1.158       .  T
C919       C1211   1.599       .  S
C920       C1130   1.605       .  S
C920       C1141   1.602       .  S
C920       C1155   1.592       .  S
C920       C1214   1.599       .  S
C921       C1074   1.620       .  S
C921       C1088   1.590       .  S
C921       C1099   1.571       .  S
C921       C1116   1.616       .  S
C922       C1032   1.616       .  S
C922       C1043   1.613       .  S
C922       C1057   1.635       .  S
C922       C1113   1.596       .  S
C923        N941   1.354       .  A
C923        C960   1.463       .  S
C923       C1197   1.498       .  S
N924        N941   1.329       .  A
N924        N946   1.317       .  A
C925        N950   1.339       .  A
C925        C963   1.458       .  S
C925        H970   1.082       .  S
H926        C967   1.080       .  S
C927        N951   1.346       .  A
C927        H956   1.081       .  S
Co928      N2170   2.078   1_455  S
Co928       N936   2.095       .  S
Co928       N944   2.079       .  S
Co928     Cl2196   2.444   1_455  S
N929        C967   1.343       .  A
N929        N936   1.319       .  A
N929       Co930   2.089       .  S
Co930       N933   2.105       .  S
Co930       N950   2.093       .  S
Co930     Cl2196   2.457   1_455  S
C931       N2193   1.355       .  A
C931       C1006   1.485       .  S
N932        N939   1.320       .  A
N932        N962   1.323       .  A
N932       Co965   2.072       .  S
N933       N1563   1.319   1_455  A
N933        N969   1.329       .  A
N934        C963   1.350       .  A
N934        N944   1.325       .  A
H935        C960   1.077       .  S
N936        N957   1.323       .  A
N937        N955   1.317       .  A
N937        N942   1.327       .  A
C938        N942   1.358       .  A
C938        C966   1.455       .  S
C938       C1085   1.497       .  S
N939        C954   1.326       .  A
N939       Co961   2.044       .  S
C940        N968   1.348       .  A
C940       C1555   1.469       .  S
C940        H974   1.081       .  S
C943        N964   1.349   1_545  A
C943       C1552   1.469       .  S
C943       C1012   1.482   1_545  S
N944        N950   1.322       .  A
N945        C971   1.345       .  A
N945        N947   1.318       .  A
N945       Co961   2.088       .  S
N946        C960   1.334       .  A
N946      Co2152   2.078       .  S
N947        N975   1.315       .  A
N947       Co965   2.056       .  S
H949        C966   1.079   1_655  S
N951       N1545   1.319   1_565  A
N951       Co965   2.089       .  S
N952        N964   1.326       .  A
N952       N1580   1.321   1_565  A
C953        N957   1.352       .  A
C953        C967   1.472       .  S
C953       C1071   1.502       .  S
C954        C973   1.440       .  S
C954        H958   1.082       .  S
N955        C966   1.335       .  A
N955      Co2189   2.066   1_455  S
C959        N975   1.338       .  A
C959        C971   1.471       .  S
C959       C1186   1.485       .  S
N962        C973   1.349       .  A
C963       C1172   1.481       .  S
Co965      N2179   2.066       .  S
N968       N1564   1.321   1_455  A
N969       C2155   1.355   1_455  A
Cl972     Co2152   2.444       .  S
Cl972     Co2154   2.457       .  S
C973       C1102   1.456       .  S
C976        N994   1.349       .  A
C976       C1013   1.472       .  S
C976       C1060   1.503       .  S
N977        N994   1.329       .  A
N977        N999   1.323       .  A
N977      Co1014   2.093       .  S
C978       N1003   1.344       .  A
C978       C1016   1.458       .  S
C978       H1023   1.081       .  S
H979       C1020   1.081       .  S
C980       N1004   1.339       .  A
C980        C984   1.460       .  S
C980       H1009   1.080       .  S
Co981       N999   2.111       .  S
Co981       N989   2.112       .  S
Co981      N1021   2.069       .  S
Co981      N2221   2.098       .  S
N982       C1020   1.343       .  A
N982       N1601   1.322   1_455  A
N982       Co983   2.095       .  S
Co983       N986   2.087       .  S
Co983       N990   2.073       .  S
Co983     Cl2249   2.459   1_455  S
C984       N1022   1.353       .  A
C984       C1029   1.494       .  S
N985        N992   1.321       .  A
N985       N1015   1.324       .  A
N985      Co2242   2.079       .  S
N986       N1004   1.320       .  A
N986       N1022   1.326       .  A
N987       C1016   1.352       .  A
N987        N997   1.326       .  A
H988       C1013   1.081       .  S
N989       N1594   1.322   1_565  A
N989       N1010   1.331       .  A
N990       N1008   1.320       .  A
N990        N995   1.322       .  A
C991        N995   1.345       .  A
C991       C1019   1.461       .  S
C991       C1127   1.481       .  S
N992       C1007   1.339       .  A
C993       N1021   1.331       .  A
C993        C996   1.451       .  S
C993       H1027   1.081       .  S
C996       N1017   1.355       .  A
C996       C1144   1.484       .  S
N997       N1003   1.319       .  A
N997      Co2205   2.098   1_455  S
N998       C1024   1.345       .  A
N998       N1612   1.320   1_565  A
N998      Co1014   2.103       .  S
N999       C1013   1.346       .  A
N1000      N1610   1.320   1_455  A
N1000      N1028   1.328       .  A
N1000     Co1018   2.090       .  S
H1001      C1024   1.081       .  S
H1002      C1019   1.081       .  S
N1004     Co1018   2.082       .  S
N1005      N1017   1.328       .  A
N1005      N1021   1.321       .  A
N1005     Co1014   2.093       .  S
C1006      C2244   1.460       .  S
C1007      C1026   1.459       .  S
C1007      H1011   1.081       .  S
N1008      C1019   1.339       .  A
N1008     Co1018   2.079       .  S
C1012      N1640   1.351   1_565  A
C1012      C1024   1.466       .  S
N1015      C1026   1.348       .  A
C1016      C1046   1.492       .  S
Co1018     N2209   2.079   1_455  S
Co1018    Cl2249   2.451   1_455  S
C1020      C2230   1.460   1_455  S
Cl1025    Co2207   2.459       .  S
Cl1025    Co2242   2.451       .  S
C1026      C1158   1.482       .  S
N1028      C1624   1.351       .  A
C1029      C1030   1.407       .  A
C1029      C1034   1.405       .  A
C1030      C1031   1.402       .  A
C1030      C1035   1.449       .  S
C1031      C1032   1.424       .  A
C1031      C1038   1.446       .  S
C1032      C1033   1.457       .  A
C1033      C1034   1.423       .  A
C1033      C1036   1.448       .  S
C1034      C1037   1.458       .  S
C1035      N1042   1.157       .  T
C1036      N1041   1.157       .  T
C1037      N1039   1.158       .  T
C1038      N1040   1.158       .  T
C1043      C1044   1.441       .  A
C1043      C1048   1.442       .  A
C1044      C1045   1.415       .  A
C1044      C1049   1.441       .  S
C1045      C1046   1.400       .  A
C1045      C1052   1.457       .  S
C1046      C1047   1.407       .  A
C1047      C1048   1.422       .  A
C1047      C1050   1.452       .  S
C1048      C1051   1.456       .  S
C1049      N1056   1.156       .  T
C1050      N1055   1.157       .  T
C1051      N1053   1.158       .  T
C1052      N1054   1.157       .  T
C1057      C1058   1.448       .  A
C1057      C1062   1.422       .  A
C1058      C1059   1.432       .  A
C1058      C1063   1.447       .  S
C1059      C1060   1.413       .  A
C1059      C1066   1.447       .  S
C1060      C1061   1.406       .  A
C1061      C1062   1.398       .  A
C1061      C1064   1.446       .  S
C1062      C1065   1.457       .  S
C1063      N1070   1.157       .  T
C1064      N1069   1.157       .  T
C1065      N1067   1.157       .  T
C1071      C1072   1.413       .  A
C1071      C1076   1.409       .  A
C1072      C1073   1.418       .  A
C1072      C1077   1.452       .  S
C1073      C1074   1.441       .  A
C1073      C1080   1.454       .  S
C1074      C1075   1.431       .  A
C1075      C1076   1.406       .  A
C1075      C1078   1.448       .  S
C1076      C1079   1.452       .  S
C1077      N2308   1.157       .  T
C1078      N1083   1.158       .  T
C1079      N1081   1.158       .  T
C1080      N1082   1.158       .  T
N1084      C2301   1.157       .  T
C1085      C1086   1.414       .  A
C1085      C1090   1.408       .  A
C1086      C1087   1.414       .  A
C1086      C1091   1.453       .  S
C1087      C1088   1.441       .  A
C1087      C1094   1.453       .  S
C1088      C1089   1.442       .  A
C1089      C1090   1.415       .  A
C1089      C1092   1.452       .  S
C1090      C1093   1.453       .  S
C1091      N2322   1.158   1_455  T
C1092      N1097   1.158       .  T
C1094      N1096   1.156       .  T
N1098      C2315   1.158       .  T
C1099      C1100   1.439       .  A
C1099      C1104   1.431       .  A
C1100      C1101   1.402       .  A
C1100      C1105   1.445       .  S
C1101      C1102   1.392       .  A
C1101      C1108   1.456       .  S
C1102      C1103   1.405       .  A
C1103      C1104   1.406       .  A
C1103      C1106   1.455       .  S
C1104      C1107   1.451       .  S
C1105      N1112   1.157       .  T
C1106      N1111   1.157       .  T
C1107      N1109   1.157       .  T
C1113      C1114   1.439       .  A
C1113      C1118   1.424       .  A
C1114      C1115   1.407       .  A
C1114      C1119   1.463       .  S
C1115      C1116   1.428       .  A
C1115      C1122   1.448       .  S
C1116      C1117   1.448       .  A
C1117      C1118   1.420       .  A
C1117      C1120   1.454       .  S
C1118      C1121   1.454       .  S
C1119      N1126   1.158       .  T
C1120      N1125   1.158       .  T
C1121      N1123   1.157       .  T
C1122      N1124   1.158       .  T
C1127      C1128   1.402       .  A
C1127      C1132   1.393       .  A
C1128      C1129   1.415       .  A
C1128      C1133   1.455       .  S
C1129      C1130   1.449       .  A
C1129      C1136   1.452       .  S
C1130      C1131   1.452       .  A
C1131      C1132   1.411       .  A
C1131      C1134   1.443       .  S
C1132      C1135   1.459       .  S
C1133      N1140   1.158       .  T
C1134      N1139   1.156       .  T
C1135      N1137   1.157       .  T
C1136      N1138   1.157       .  T
C1141      C1142   1.442       .  A
C1141      C1146   1.444       .  A
C1142      C1143   1.404       .  A
C1142      C1147   1.455       .  S
C1143      C1144   1.404       .  A
C1143      C1150   1.457       .  S
C1144      C1145   1.407       .  A
C1145      C1146   1.418       .  A
C1145      C1148   1.452       .  S
C1146      C1149   1.453       .  S
C1147      N1154   1.158       .  T
C1148      N1153   1.157       .  T
C1149      N1151   1.158       .  T
C1150      N1152   1.158       .  T
C1155      C1156   1.444       .  A
C1155      C1160   1.447       .  A
C1156      C1157   1.412       .  A
C1156      C1161   1.447       .  S
C1157      C1158   1.400       .  A
C1157      C1164   1.453       .  S
C1158      C1159   1.400       .  A
C1159      C1160   1.408       .  A
C1159      C1162   1.453       .  S
C1160      C1163   1.451       .  S
C1161      N1168   1.158       .  T
C1162      N1167   1.157       .  T
C1163      N1165   1.156       .  T
C1164      N1166   1.157       .  T
C1169      C1170   1.451   1_556  A
C1169      C1174   1.458       .  A
C1170      C1171   1.417   1_554  A
C1170      C1175   1.448       .  S
C1171      C1172   1.393       .  A
C1171      C1178   1.456   1_556  S
C1172      C1173   1.395       .  A
C1173      C1174   1.419       .  A
C1173      C1176   1.460       .  S
C1174      C1177   1.448       .  S
C1176      N1181   1.158       .  T
C1177      N1179   1.159       .  T
C1183      C1184   1.427       .  A
C1184      C1185   1.415       .  A
C1184      C1189   1.450       .  S
C1185      C1186   1.420       .  A
C1185      C1192   1.454       .  S
C1187      C1188   1.404       .  A
C1187      C1190   1.453       .  S
C1188      C1191   1.452       .  S
C1189      N1196   1.157       .  T
C1190      N1195   1.157       .  T
C1191      N1193   1.156       .  T
C1192      N1194   1.158       .  T
C1197      C1198   1.417       .  A
C1197      C1202   1.406       .  A
C1198      C1199   1.429       .  A
C1198      C1203   1.451       .  S
C1199      C1200   1.438       .  A
C1199      C1206   1.450       .  S
C1201      C1204   1.450       .  S
C1203      N1210   1.157       .  T
C1204      N1209   1.158       .  T
C1205      N1207   1.157       .  T
C1206      N1208   1.158       .  T
C1211      C1212   1.440       .  A
C1211      C1216   1.436       .  A
C1212      C1213   1.424       .  A
C1212      C1217   1.444       .  S
C1213      C1214   1.440       .  A
C1213      C1220   1.456       .  S
C1214      C1215   1.416       .  A
C1215      C1216   1.397       .  A
C1215      C1218   1.449       .  S
C1216      C1219   1.443       .  S
C1217      N1224   1.157       .  T
C1218      N1223   1.158       .  T
C1219      N1221   1.157       .  T
C1220      N1222   1.158       .  T
C1225      C1781   1.615   1_554  S
C1225      C1795   1.583   1_554  S
C1225      C1812   1.612   1_554  S
C1225      C1517   1.599       .  S
C1226      C1436   1.605       .  S
C1226      C1447   1.602       .  S
C1226      C1461   1.592       .  S
C1226      C1520   1.599       .  S
C1227      C1380   1.620       .  S
C1227      C1394   1.590       .  S
C1227      C1405   1.571       .  S
C1227      C1422   1.616       .  S
C1228      C1338   1.616       .  S
C1228      C1349   1.613       .  S
C1228      C1363   1.635       .  S
C1228      C1419   1.596       .  S
C1229      N1247   1.354       .  A
C1229      C1266   1.463       .  S
C1229      C1503   1.498       .  S
N1230      N1247   1.329       .  A
N1230      N1252   1.317       .  A
N1230     Co1879   2.089   1_545  S
C1231      N1256   1.339       .  A
C1231      C1269   1.458       .  S
C1231      H1276   1.082       .  S
H1232      C1273   1.080       .  S
C1233      N1257   1.346       .  A
C1233      C1849   1.462       .  S
C1233      H1262   1.081       .  S
Co1234     N1242   2.095       .  S
Co1234     N1580   2.112       .  S
Co1234     N1250   2.079       .  S
N1235      C1273   1.343       .  A
N1235      N1242   1.319       .  A
N1235     Co1236   2.089       .  S
Co1236     N1239   2.105       .  S
Co1236     N1256   2.094       .  S
Co1236     N1855   2.100   1_545  S
C1237      C1845   1.462   1_545  S
C1237      C1312   1.485       .  S
N1238      N1245   1.320       .  A
N1238      N1268   1.323       .  A
N1238     Co1271   2.072       .  S
N1239      N1275   1.329       .  A
N1240      C1269   1.350       .  A
N1240      N1250   1.325       .  A
H1241      C1266   1.077   1_455  S
N1242      N1263   1.323       .  A
N1243      N1261   1.317       .  A
N1243      N1248   1.327       .  A
N1243     Co1848   2.100       .  S
C1244      N1248   1.358       .  A
C1244      C1272   1.455       .  S
C1244      C1391   1.497       .  S
N1245      C1260   1.326       .  A
N1245     Co1267   2.044       .  S
C1246      N1274   1.348       .  A
C1246      H1280   1.081       .  S
C1249      N1270   1.349   1_455  A
C1249      C1318   1.482       .  S
N1250      N1256   1.322       .  A
N1251      C1277   1.345       .  A
N1251      N1253   1.318       .  A
N1251     Co1267   2.088       .  S
N1252      C1266   1.334       .  A
N1253      N1281   1.315       .  A
N1253     Co1271   2.056       .  S
H1254      C1583   1.082   1_554  S
H1255      C1272   1.079       .  S
N1257     Co1271   2.089       .  S
N1258      N1270   1.326       .  A
N1258     Co1573   2.082   1_554  S
C1259      N1263   1.352       .  A
C1259      C1273   1.472       .  S
C1259      C1377   1.502       .  S
C1260      C1279   1.440       .  S
C1260      H1264   1.082       .  S
N1261      C1272   1.335       .  A
C1265      N1281   1.338       .  A
C1265      C1277   1.471       .  S
C1265      C1492   1.485       .  S
Co1267     N1842   2.089       .  S
Co1267     N1564   2.082       .  S
Co1267    Cl1890   2.456       .  S
N1268      C1279   1.349       .  A
C1269      C1478   1.481       .  S
Co1271    Cl1890   2.439       .  S
N1274     Co1540   2.112   1_554  S
C1277      H1560   1.082       .  S
Cl1278    Co1879   2.456   1_545  S
Cl1278    Co1883   2.439   1_545  S
C1279      C1408   1.456       .  S
C1282      N1300   1.349       .  A
C1282      C1319   1.472       .  S
C1282      C1366   1.503       .  S
N1283      N1300   1.329       .  A
N1283      N1305   1.323       .  A
N1283     Co1320   2.093       .  S
C1284      N1309   1.344       .  A
C1284      C1322   1.458       .  S
C1284      H1329   1.081       .  S
H1285      C1326   1.081       .  S
C1286      N1310   1.339       .  A
C1286      C1290   1.460       .  S
C1286      H1315   1.080       .  S
Co1287     N1305   2.111       .  S
Co1287     N1295   2.112       .  S
Co1287     N1327   2.069       .  S
Co1287    Cl1943   2.450       .  S
N1288      C1326   1.343       .  A
N1288     Co1289   2.095       .  S
Co1289     N1292   2.087       .  S
Co1289     N1921   2.080   1_545  S
Co1289     N1296   2.073       .  S
C1290      N1328   1.353       .  A
C1290      C1335   1.494       .  S
N1291      N1298   1.321       .  A
N1291      N1321   1.324       .  A
N1292      N1310   1.320       .  A
N1292      N1328   1.326       .  A
N1293      C1322   1.352       .  A
N1293      N1303   1.326       .  A
H1294      C1319   1.081       .  S
N1295      N1316   1.331       .  A
N1296      N1314   1.320       .  A
N1296      N1301   1.322       .  A
C1297      N1301   1.345       .  A
C1297      C1325   1.461       .  S
C1297      C1433   1.481       .  S
N1298      C1313   1.339       .  A
N1298     Co1932   2.085   1_545  S
C1299      N1327   1.331       .  A
C1299      C1302   1.451       .  S
C1299      H1333   1.081       .  S
C1302      N1323   1.355       .  A
C1302      C1450   1.484       .  S
N1303      N1309   1.319       .  A
N1304      C1330   1.345       .  A
N1304     Co1320   2.103       .  S
N1305      C1319   1.346       .  A
N1306      N1334   1.328       .  A
N1306     Co1324   2.090       .  S
H1307      C1330   1.081       .  S
H1308      C1325   1.081       .  S
N1309     Co1901   2.080       .  S
N1310     Co1324   2.082       .  S
N1311      N1323   1.328       .  A
N1311      N1327   1.321       .  A
N1311     Co1320   2.093       .  S
C1312      N1928   1.356   1_545  A
C1313      C1332   1.459       .  S
C1313      H1317   1.081       .  S
N1314      C1325   1.339       .  A
N1314     Co1324   2.079       .  S
N1316      C1924   1.356       .  A
C1318      C1330   1.466   1_455  S
Co1320     N1910   2.085       .  S
Co1320    Cl1943   2.462       .  S
N1321      C1332   1.348       .  A
C1322      C1352   1.492       .  S
Cl1331    Co1899   2.450   1_545  S
Cl1331    Co1932   2.462   1_545  S
C1332      C1464   1.482       .  S
C1335      C1336   1.407       .  A
C1335      C1340   1.405       .  A
C1336      C1337   1.402       .  A
C1336      C1341   1.449       .  S
C1337      C1338   1.424       .  A
C1337      C1344   1.446       .  S
C1338      C1339   1.457       .  A
C1339      C1340   1.423       .  A
C1339      C1342   1.448       .  S
C1340      C1343   1.458       .  S
C1341      N1348   1.157       .  T
C1342      N1347   1.157       .  T
C1343      N1345   1.158       .  T
C1344      N1346   1.158       .  T
C1349      C1350   1.441       .  A
C1349      C1354   1.442       .  A
C1350      C1351   1.415       .  A
C1350      C1355   1.441       .  S
C1351      C1352   1.400       .  A
C1351      C1358   1.457       .  S
C1352      C1353   1.407       .  A
C1353      C1354   1.422       .  A
C1353      C1356   1.452       .  S
C1354      C1357   1.456       .  S
C1355      N1362   1.156       .  T
C1356      N1361   1.157       .  T
C1357      N1359   1.158       .  T
C1358      N1360   1.157       .  T
C1363      C1364   1.448       .  A
C1363      C1368   1.422       .  A
C1364      C1365   1.432       .  A
C1364      C1369   1.447       .  S
C1365      C1366   1.413       .  A
C1365      C1372   1.447       .  S
C1366      C1367   1.406       .  A
C1367      C1368   1.398       .  A
C1367      C1370   1.446       .  S
C1368      C1371   1.457       .  S
C1369      N1376   1.157       .  T
C1370      N1375   1.157       .  T
C1371      N1373   1.157       .  T
C1372      N1986   1.156       .  T
N1374      C1984   1.156       .  T
C1377      C1378   1.413       .  A
C1377      C1382   1.409       .  A
C1378      C1379   1.418       .  A
C1378      C1383   1.452       .  S
C1379      C1380   1.441       .  A
C1379      C1386   1.454       .  S
C1380      C1381   1.431       .  A
C1381      C1382   1.406       .  A
C1381      C1384   1.448       .  S
C1382      C1385   1.452       .  S
C1384      N1389   1.158       .  T
C1385      N1387   1.158       .  T
C1386      N1388   1.158       .  T
C1391      C1392   1.414       .  A
C1391      C1396   1.408       .  A
C1392      C1393   1.414       .  A
C1392      C1397   1.453       .  S
C1393      C1394   1.441       .  A
C1393      C1400   1.453       .  S
C1394      C1395   1.442       .  A
C1395      C1396   1.415       .  A
C1395      C1398   1.452       .  S
C1396      C1399   1.453       .  S
C1398      N1403   1.158       .  T
C1399      N2013   1.156       .  T
C1400      N1402   1.156       .  T
N1401      C2011   1.156       .  T
C1405      C1406   1.439       .  A
C1405      C1410   1.431       .  A
C1406      C1407   1.402       .  A
C1406      C1411   1.445       .  S
C1407      C1408   1.392       .  A
C1407      C1414   1.456       .  S
C1408      C1409   1.405       .  A
C1409      C1410   1.406       .  A
C1409      C1412   1.455       .  S
C1410      C1413   1.451       .  S
C1411      N1418   1.157       .  T
C1412      N1417   1.157       .  T
C1413      N1415   1.157       .  T
C1414      N2028   1.157       .  T
N1416      C2026   1.157       .  T
C1419      C1420   1.439       .  A
C1419      C1424   1.424       .  A
C1420      C1421   1.407       .  A
C1420      C1425   1.463       .  S
C1421      C1422   1.428       .  A
C1421      C1428   1.448       .  S
C1422      C1423   1.448       .  A
C1423      C1424   1.420       .  A
C1423      C1426   1.454       .  S
C1424      C1427   1.454       .  S
C1425      N1432   1.158       .  T
C1426      N1431   1.158       .  T
C1427      N1429   1.157       .  T
C1428      N1430   1.158       .  T
C1433      C1434   1.402       .  A
C1433      C1438   1.393       .  A
C1434      C1435   1.415       .  A
C1434      C1439   1.455       .  S
C1435      C1436   1.449       .  A
C1435      C1442   1.452       .  S
C1436      C1437   1.452       .  A
C1437      C1438   1.411       .  A
C1437      C1440   1.443       .  S
C1438      C1441   1.459       .  S
C1439      N1446   1.158       .  T
C1440      N1445   1.156       .  T
C1441      N1443   1.157       .  T
C1442      N1444   1.157       .  T
C1447      C1448   1.442       .  A
C1447      C1452   1.444       .  A
C1448      C1449   1.404       .  A
C1448      C1453   1.455       .  S
C1449      C1450   1.404       .  A
C1449      C1456   1.457       .  S
C1450      C1451   1.407       .  A
C1451      C1452   1.418       .  A
C1451      C1454   1.452       .  S
C1452      C1455   1.453       .  S
C1453      N1460   1.158       .  T
C1454      N1459   1.157       .  T
C1455      N1457   1.158       .  T
C1456      N1458   1.158       .  T
C1461      C1462   1.444       .  A
C1461      C1466   1.447       .  A
C1462      C1463   1.412       .  A
C1462      C1467   1.447       .  S
C1463      C1464   1.400       .  A
C1463      C1470   1.453       .  S
C1464      C1465   1.400       .  A
C1465      C1466   1.408       .  A
C1465      C1468   1.453       .  S
C1466      C1469   1.451       .  S
C1467      N1474   1.158       .  T
C1468      N1473   1.157       .  T
C1469      N1471   1.156       .  T
C1470      N1472   1.157       .  T
C1475      C1531   1.615       .  S
C1475      C1476   1.451       .  A
C1475      C1480   1.458       .  A
C1476      C1477   1.417       .  A
C1476      C1481   1.448       .  S
C1477      C1478   1.393       .  A
C1477      C1484   1.456       .  S
C1478      C1479   1.395       .  A
C1479      C1480   1.419       .  A
C1479      C1482   1.460       .  S
C1480      C1483   1.448       .  S
C1481      N1794   1.157       .  T
C1482      N1487   1.158       .  T
C1483      N1485   1.159       .  T
C1484      N2098   1.157       .  T
N1486      C2096   1.157       .  T
N1488      C1787   1.157       .  T
C1489      C1531   1.583       .  S
C1489      C1490   1.427       .  A
C1489      C1800   1.437       .  A
C1490      C1491   1.415       .  A
C1490      C1495   1.450       .  S
C1491      C1492   1.420       .  A
C1491      C1498   1.454       .  S
C1492      C1799   1.402       .  A
C1493      C1798   1.402   1_554  A
C1493      C1494   1.404       .  A
C1493      C1496   1.453       .  S
C1494      C1795   1.437   1_554  A
C1494      C1497   1.452       .  S
C1495      N1502   1.157       .  T
C1496      N1501   1.157       .  T
C1497      N1499   1.156       .  T
C1498      N1500   1.158       .  T
C1503      C1504   1.417       .  A
C1503      C1508   1.406       .  A
C1504      C1505   1.429       .  A
C1504      C1509   1.451       .  S
C1505      C1506   1.438       .  A
C1505      C1512   1.450       .  S
C1506      C1531   1.612       .  S
C1506      C1813   1.436       .  A
C1507      C1812   1.436       .  A
C1507      C1814   1.395       .  A
C1507      C1510   1.450       .  S
C1508      C1813   1.395       .  A
C1508      C1817   1.452       .  S
C1509      N1516   1.157       .  T
C1510      N1515   1.158       .  T
C1511      C1814   1.452   1_554  S
C1511      N1513   1.157   1_655  T
C1512      N1514   1.158       .  T
C1517      C1518   1.440       .  A
C1517      C1522   1.436       .  A
C1518      C1519   1.424       .  A
C1518      C1523   1.444       .  S
C1519      C1520   1.440       .  A
C1519      C1526   1.456       .  S
C1520      C1521   1.416       .  A
C1521      C1522   1.397       .  A
C1521      C1524   1.449       .  S
C1522      C1525   1.443       .  S
C1523      N1530   1.157       .  T
C1524      N1529   1.158       .  T
C1525      N1527   1.157       .  T
C1526      N1528   1.158       .  T
C1531      C1823   1.599       .  S
C1532      C1742   1.605       .  S
C1532      C1753   1.602       .  S
C1532      C1767   1.592       .  S
C1532      C1826   1.599       .  S
C1533      C1686   1.620       .  S
C1533      C1700   1.590       .  S
C1533      C1711   1.571       .  S
C1533      C1728   1.616       .  S
C1534      C1644   1.616       .  S
C1534      C1655   1.613       .  S
C1534      C1669   1.635       .  S
C1534      C1725   1.596       .  S
C1535      N1553   1.354       .  A
C1535      C1572   1.463       .  S
C1535      C1809   1.498       .  S
N1536      N1553   1.329       .  A
N1536      N1558   1.317       .  A
N1536     Co2185   2.089   1_545  S
C1537      N1562   1.339       .  A
C1537      C1575   1.458       .  S
C1537      H1582   1.082       .  S
H1538      C1579   1.080       .  S
C1539      N1563   1.346       .  A
C1539      C2155   1.462       .  S
C1539      H1568   1.081       .  S
Co1540     N1548   2.095       .  S
Co1540     N1556   2.079       .  S
N1541      C1579   1.343       .  A
N1541      N1548   1.319       .  A
N1541     Co1542   2.089       .  S
Co1542     N1545   2.105       .  S
Co1542     N1562   2.094       .  S
Co1542     N2161   2.100   1_545  S
C1543      C2151   1.462   1_545  S
C1543      C1618   1.485       .  S
N1544      N1551   1.320       .  A
N1544      N1574   1.323       .  A
N1544     Co1577   2.072       .  S
N1545      N1581   1.329       .  A
N1546      C1575   1.350       .  A
N1546      N1556   1.325       .  A
H1547      C1572   1.077   1_455  S
N1548      N1569   1.323       .  A
N1549      N1567   1.317       .  A
N1549      N1554   1.327       .  A
N1549     Co2154   2.100       .  S
C1550      N1554   1.358       .  A
C1550      C1578   1.455       .  S
C1550      C1697   1.497       .  S
N1551      C1566   1.326       .  A
N1551     Co1573   2.044       .  S
C1552      N1580   1.348       .  A
C1552      H1586   1.081       .  S
C1555      N1576   1.349   1_455  A
C1555      C1624   1.482       .  S
N1556      N1562   1.322       .  A
N1557      C1583   1.345       .  A
N1557      N1559   1.318       .  A
N1557     Co1573   2.088       .  S
N1558      C1572   1.334       .  A
N1559      N1587   1.315       .  A
N1559     Co1577   2.056       .  S
H1561      C1578   1.079       .  S
N1563     Co1577   2.089       .  S
N1564      N1576   1.326       .  A
C1565      N1569   1.352       .  A
C1565      C1579   1.472       .  S
C1565      C1683   1.502       .  S
C1566      C1585   1.440       .  S
C1566      H1570   1.082       .  S
N1567      C1578   1.335       .  A
C1571      N1587   1.338       .  A
C1571      C1583   1.471       .  S
C1571      C1798   1.485       .  S
Co1573     N2148   2.089       .  S
Co1573    Cl2196   2.456       .  S
N1574      C1585   1.349       .  A
C1575      C1784   1.481       .  S
Co1577    Cl2196   2.439       .  S
Cl1584    Co2185   2.456   1_545  S
Cl1584    Co2189   2.439   1_545  S
C1585      C1714   1.456       .  S
C1588      N1606   1.349       .  A
C1588      C1625   1.472       .  S
C1588      C1672   1.503       .  S
N1589      N1606   1.329       .  A
N1589      N1611   1.323       .  A
N1589     Co1626   2.093       .  S
C1590      N1615   1.344       .  A
C1590      C1628   1.458       .  S
C1590      H1635   1.081       .  S
H1591      C1632   1.081       .  S
C1592      N1616   1.339       .  A
C1592      C1596   1.460       .  S
C1592      H1621   1.080       .  S
Co1593     N1611   2.111       .  S
Co1593     N1601   2.112       .  S
Co1593     N1633   2.069       .  S
Co1593    Cl2249   2.450       .  S
N1594      C1632   1.343       .  A
N1594     Co1595   2.095       .  S
Co1595     N1598   2.087       .  S
Co1595     N2227   2.080   1_545  S
Co1595     N1602   2.073       .  S
C1596      N1634   1.353       .  A
C1596      C1641   1.494       .  S
N1597      N1604   1.321       .  A
N1597      N1627   1.324       .  A
N1598      N1616   1.320       .  A
N1598      N1634   1.326       .  A
N1599      C1628   1.352       .  A
N1599      N1609   1.326       .  A
H1600      C1625   1.081       .  S
N1601      N1622   1.331       .  A
N1602      N1620   1.320       .  A
N1602      N1607   1.322       .  A
C1603      N1607   1.345       .  A
C1603      C1631   1.461       .  S
C1603      C1739   1.481       .  S
N1604      C1619   1.339       .  A
N1604     Co2238   2.085   1_545  S
C1605      N1633   1.331       .  A
C1605      C1608   1.451       .  S
C1605      H1639   1.081       .  S
C1608      N1629   1.355       .  A
C1608      C1756   1.484       .  S
N1609      N1615   1.319       .  A
N1610      C1636   1.345       .  A
N1610     Co1626   2.103       .  S
N1611      C1625   1.346       .  A
N1612      N1640   1.328       .  A
N1612     Co1630   2.090       .  S
H1613      C1636   1.081       .  S
H1614      C1631   1.081       .  S
N1615     Co2207   2.080       .  S
N1616     Co1630   2.082       .  S
N1617      N1629   1.328       .  A
N1617      N1633   1.321       .  A
N1617     Co1626   2.093       .  S
C1618      N2234   1.356   1_545  A
C1619      C1638   1.459       .  S
C1619      H1623   1.081       .  S
N1620      C1631   1.339       .  A
N1620     Co1630   2.079       .  S
N1622      C2230   1.356       .  A
C1624      C1636   1.466   1_455  S
Co1626     N2216   2.085       .  S
Co1626    Cl2249   2.462       .  S
N1627      C1638   1.348       .  A
C1628      C1658   1.492       .  S
Cl1637    Co2205   2.450   1_545  S
Cl1637    Co2238   2.462   1_545  S
C1638      C1770   1.482       .  S
C1641      C1642   1.407       .  A
C1641      C1646   1.405       .  A
C1642      C1643   1.402       .  A
C1642      C1647   1.449       .  S
C1643      C1644   1.424       .  A
C1643      C1650   1.446       .  S
C1644      C1645   1.457       .  A
C1645      C1646   1.423       .  A
C1645      C1648   1.448       .  S
C1646      C1649   1.458       .  S
C1647      N1654   1.157       .  T
C1648      N1653   1.157       .  T
C1649      N1651   1.158       .  T
C1650      N1652   1.158       .  T
C1655      C1656   1.441       .  A
C1655      C1660   1.442       .  A
C1656      C1657   1.415       .  A
C1656      C1661   1.441       .  S
C1657      C1658   1.400       .  A
C1657      C1664   1.457       .  S
C1658      C1659   1.407       .  A
C1659      C1660   1.422       .  A
C1659      C1662   1.452       .  S
C1660      C1663   1.456       .  S
C1661      N1668   1.156       .  T
C1662      N1667   1.157       .  T
C1663      N1665   1.158       .  T
C1664      N1666   1.157       .  T
C1669      C1670   1.448       .  A
C1669      C1674   1.422       .  A
C1670      C1671   1.432       .  A
C1670      C1675   1.447       .  S
C1671      C1672   1.413       .  A
C1671      C1678   1.447       .  S
C1672      C1673   1.406       .  A
C1673      C1674   1.398       .  A
C1673      C1676   1.446       .  S
C1674      C1677   1.457       .  S
C1675      N1682   1.157       .  T
C1676      N1681   1.157       .  T
C1677      N1679   1.157       .  T
C1678      N2292   1.156       .  T
N1680      C2290   1.156       .  T
C1683      C1684   1.413       .  A
C1683      C1688   1.409       .  A
C1684      C1685   1.418       .  A
C1684      C1689   1.452       .  S
C1685      C1686   1.441       .  A
C1685      C1692   1.454       .  S
C1686      C1687   1.431       .  A
C1687      C1688   1.406       .  A
C1687      C1690   1.448       .  S
C1688      C1691   1.452       .  S
C1690      N1695   1.158       .  T
C1691      N1693   1.158       .  T
C1692      N1694   1.158       .  T
C1697      C1698   1.414       .  A
C1697      C1702   1.408       .  A
C1698      C1699   1.414       .  A
C1698      C1703   1.453       .  S
C1699      C1700   1.441       .  A
C1699      C1706   1.453       .  S
C1700      C1701   1.442       .  A
C1701      C1702   1.415       .  A
C1701      C1704   1.452       .  S
C1702      C1705   1.453       .  S
C1704      N1709   1.158       .  T
C1705      N2319   1.156       .  T
C1706      N1708   1.156       .  T
N1707      C2317   1.156       .  T
C1711      C1712   1.439       .  A
C1711      C1716   1.431       .  A
C1712      C1713   1.402       .  A
C1712      C1717   1.445       .  S
C1713      C1714   1.392       .  A
C1713      C1720   1.456       .  S
C1714      C1715   1.405       .  A
C1715      C1716   1.406       .  A
C1715      C1718   1.455       .  S
C1716      C1719   1.451       .  S
C1717      N1724   1.157       .  T
C1718      N1723   1.157       .  T
C1719      N1721   1.157       .  T
C1720      N2334   1.157       .  T
N1722      C2332   1.157       .  T
C1725      C1726   1.439       .  A
C1725      C1730   1.424       .  A
C1726      C1727   1.407       .  A
C1726      C1731   1.463       .  S
C1727      C1728   1.428       .  A
C1727      C1734   1.448       .  S
C1728      C1729   1.448       .  A
C1729      C1730   1.420       .  A
C1729      C1732   1.454       .  S
C1730      C1733   1.454       .  S
C1731      N1738   1.158       .  T
C1732      N1737   1.158       .  T
C1733      N1735   1.157       .  T
C1734      N1736   1.158       .  T
C1739      C1740   1.402       .  A
C1739      C1744   1.393       .  A
C1740      C1741   1.415       .  A
C1740      C1745   1.455       .  S
C1741      C1742   1.449       .  A
C1741      C1748   1.452       .  S
C1742      C1743   1.452       .  A
C1743      C1744   1.411       .  A
C1743      C1746   1.443       .  S
C1744      C1747   1.459       .  S
C1745      N1752   1.158       .  T
C1746      N1751   1.156       .  T
C1747      N1749   1.157       .  T
C1748      N1750   1.157       .  T
C1753      C1754   1.442       .  A
C1753      C1758   1.444       .  A
C1754      C1755   1.404       .  A
C1754      C1759   1.455       .  S
C1755      C1756   1.404       .  A
C1755      C1762   1.457       .  S
C1756      C1757   1.407       .  A
C1757      C1758   1.418       .  A
C1757      C1760   1.452       .  S
C1758      C1761   1.453       .  S
C1759      N1766   1.158       .  T
C1760      N1765   1.157       .  T
C1761      N1763   1.158       .  T
C1762      N1764   1.158       .  T
C1767      C1768   1.444       .  A
C1767      C1772   1.447       .  A
C1768      C1769   1.412       .  A
C1768      C1773   1.447       .  S
C1769      C1770   1.400       .  A
C1769      C1776   1.453       .  S
C1770      C1771   1.400       .  A
C1771      C1772   1.408       .  A
C1771      C1774   1.453       .  S
C1772      C1775   1.451       .  S
C1773      N1780   1.158       .  T
C1774      N1779   1.157       .  T
C1775      N1777   1.156       .  T
C1776      N1778   1.157       .  T
C1781      C1782   1.451   1_556  A
C1781      C1786   1.458       .  A
C1782      C1783   1.417   1_554  A
C1782      C1787   1.448       .  S
C1783      C1784   1.393       .  A
C1783      C1790   1.456   1_556  S
C1784      C1785   1.395       .  A
C1785      C1786   1.419       .  A
C1785      C1788   1.460       .  S
C1786      C1789   1.448       .  S
C1788      N1793   1.158       .  T
C1789      N1791   1.159       .  T
C1790      N2404   1.157       .  T
N1792      C2402   1.157       .  T
C1795      C1796   1.427       .  A
C1796      C1797   1.415       .  A
C1796      C1801   1.450       .  S
C1797      C1798   1.420       .  A
C1797      C1804   1.454       .  S
C1799      C1800   1.404       .  A
C1799      C1802   1.453       .  S
C1800      C1803   1.452       .  S
C1801      N1808   1.157       .  T
C1802      N1807   1.157       .  T
C1803      N1805   1.156       .  T
C1804      N1806   1.158       .  T
C1809      C1810   1.417       .  A
C1809      C1814   1.406       .  A
C1810      C1811   1.429       .  A
C1810      C1815   1.451       .  S
C1811      C1812   1.438       .  A
C1811      C1818   1.450       .  S
C1813      C1816   1.450       .  S
C1815      N1822   1.157       .  T
C1816      N1821   1.158       .  T
C1817      N1819   1.157   1_655  T
C1818      N1820   1.158       .  T
C1823      C1824   1.440       .  A
C1823      C1828   1.436       .  A
C1824      C1825   1.424       .  A
C1824      C1829   1.444       .  S
C1825      C1826   1.440       .  A
C1825      C1832   1.456       .  S
C1826      C1827   1.416       .  A
C1827      C1828   1.397       .  A
C1827      C1830   1.449       .  S
C1828      C1831   1.443       .  S
C1829      N1836   1.157       .  T
C1830      N1835   1.158       .  T
C1831      N1833   1.157       .  T
C1832      N1834   1.158       .  T
C1837      C2393   1.615   1_554  S
C1837      C2407   1.583   1_554  S
C1837      C2424   1.612   1_554  S
C1837      C2129   1.599       .  S
C1838      C2048   1.605       .  S
C1838      C2059   1.602       .  S
C1838      C2073   1.592       .  S
C1838      C2132   1.599       .  S
C1839      C1992   1.620       .  S
C1839      C2006   1.590       .  S
C1839      C2017   1.571       .  S
C1839      C2034   1.616       .  S
C1840      C1950   1.616       .  S
C1840      C1961   1.613       .  S
C1840      C1975   1.635       .  S
C1840      C2031   1.596       .  S
C1841      N1859   1.354       .  A
C1841      C1878   1.463       .  S
C1841      C2115   1.498       .  S
N1842      N1859   1.329       .  A
N1842      N1864   1.317       .  A
C1843      N1868   1.339       .  A
C1843      C1881   1.458       .  S
C1843      H1888   1.082       .  S
H1844      C1885   1.080       .  S
C1845      N1869   1.346       .  A
C1845      H1874   1.081       .  S
Co1846     N1854   2.095       .  S
Co1846     N2192   2.112       .  S
Co1846     N1862   2.079       .  S
N1847      C1885   1.343       .  A
N1847      N1854   1.319       .  A
N1847     Co1848   2.089       .  S
Co1848     N1851   2.105       .  S
Co1848     N1868   2.093       .  S
C1849      C1924   1.485       .  S
N1850      N1857   1.320       .  A
N1850      N1880   1.323       .  A
N1850     Co1883   2.072       .  S
N1851      N1887   1.329       .  A
N1852      C1881   1.350       .  A
N1852      N1862   1.325       .  A
H1853      C1878   1.077   1_455  S
N1854      N1875   1.323       .  A
N1855      N1873   1.317       .  A
N1855      N1860   1.327       .  A
C1856      N1860   1.358       .  A
C1856      C1884   1.455       .  S
C1856      C2003   1.497       .  S
N1857      C1872   1.326       .  A
N1857     Co1879   2.044       .  S
C1858      N1886   1.348       .  A
C1858      H1892   1.081       .  S
C1861      N1882   1.349   1_445  A
C1861      C1930   1.482   1_545  S
N1862      N1868   1.322       .  A
N1863      C1889   1.345       .  A
N1863      N1865   1.318       .  A
N1863     Co1879   2.088       .  S
N1864      C1878   1.334       .  A
N1865      N1893   1.315       .  A
N1865     Co1883   2.056       .  S
H1866      C2195   1.082   1_554  S
H1867      C1884   1.079       .  S
N1869     Co1883   2.089       .  S
N1870      N1882   1.326       .  A
N1870     Co2185   2.082   1_554  S
C1871      N1875   1.352       .  A
C1871      C1885   1.472       .  S
C1871      C1989   1.502       .  S
C1872      C1891   1.440       .  S
C1872      H1876   1.082       .  S
N1873      C1884   1.335       .  A
C1877      N1893   1.338       .  A
C1877      C1889   1.471       .  S
C1877      C2104   1.485       .  S
Co1879     N2176   2.082       .  S
N1880      C1891   1.349       .  A
C1881      C2090   1.481       .  S
N1886     Co2152   2.112   1_554  S
C1889      H2172   1.082       .  S
C1891      C2020   1.456       .  S
C1894      N1912   1.349       .  A
C1894      C1931   1.472       .  S
C1894      C1978   1.503       .  S
N1895      N1912   1.329       .  A
N1895      N1917   1.323       .  A
N1895     Co1932   2.093       .  S
C1896      N1921   1.344       .  A
C1896      C1934   1.458       .  S
C1896      H1941   1.081       .  S
H1897      C1938   1.081       .  S
C1898      N1922   1.339       .  A
C1898      C1902   1.460       .  S
C1898      H1927   1.080       .  S
Co1899     N1917   2.111       .  S
Co1899     N1907   2.112       .  S
Co1899     N1939   2.069       .  S
N1900      C1938   1.343       .  A
N1900     Co1901   2.095       .  S
Co1901     N1904   2.087       .  S
Co1901     N1908   2.073       .  S
C1902      N1940   1.353       .  A
C1902      C1947   1.494       .  S
N1903      N1910   1.321       .  A
N1903      N1933   1.324       .  A
N1904      N1922   1.320       .  A
N1904      N1940   1.326       .  A
N1905      C1934   1.352       .  A
N1905      N1915   1.326       .  A
H1906      C1931   1.081       .  S
N1907      N1928   1.331       .  A
N1908      N1926   1.320       .  A
N1908      N1913   1.322       .  A
C1909      N1913   1.345       .  A
C1909      C1937   1.461       .  S
C1909      C2045   1.481       .  S
N1910      C1925   1.339       .  A
C1911      N1939   1.331       .  A
C1911      C1914   1.451       .  S
C1911      H1945   1.081       .  S
C1914      N1935   1.355       .  A
C1914      C2062   1.484       .  S
N1915      N1921   1.319       .  A
N1916      C1942   1.345       .  A
N1916     Co1932   2.103       .  S
N1917      C1931   1.346       .  A
N1918      N1946   1.328       .  A
N1918     Co1936   2.090       .  S
H1919      C1942   1.081       .  S
H1920      C1937   1.081       .  S
N1922     Co1936   2.082       .  S
N1923      N1935   1.328       .  A
N1923      N1939   1.321       .  A
N1923     Co1932   2.093       .  S
C1925      C1944   1.459       .  S
C1925      H1929   1.081       .  S
N1926      C1937   1.339       .  A
N1926     Co1936   2.079       .  S
C1930      C1942   1.466   1_455  S
N1933      C1944   1.348       .  A
C1934      C1964   1.492       .  S
C1944      C2076   1.482       .  S
C1947      C1948   1.407       .  A
C1947      C1952   1.405       .  A
C1948      C1949   1.402       .  A
C1948      C1953   1.449       .  S
C1949      C1950   1.424       .  A
C1949      C1956   1.446       .  S
C1950      C1951   1.457       .  A
C1951      C1952   1.423       .  A
C1951      C1954   1.448       .  S
C1952      C1955   1.458       .  S
C1953      N1960   1.157       .  T
C1954      N1959   1.157       .  T
C1955      N1957   1.158       .  T
C1956      N1958   1.158       .  T
C1961      C1962   1.441       .  A
C1961      C1966   1.442       .  A
C1962      C1963   1.415       .  A
C1962      C1967   1.441       .  S
C1963      C1964   1.400       .  A
C1963      C1970   1.457       .  S
C1964      C1965   1.407       .  A
C1965      C1966   1.422       .  A
C1965      C1968   1.452       .  S
C1966      C1969   1.456       .  S
C1967      N1974   1.156       .  T
C1968      N1973   1.157       .  T
C1969      N1971   1.158       .  T
C1970      N1972   1.157       .  T
C1975      C1976   1.448       .  A
C1975      C1980   1.422       .  A
C1976      C1977   1.432       .  A
C1976      C1981   1.447       .  S
C1977      C1978   1.413       .  A
C1977      C1984   1.447       .  S
C1978      C1979   1.406       .  A
C1979      C1980   1.398       .  A
C1979      C1982   1.446       .  S
C1980      C1983   1.457       .  S
C1981      N1988   1.157       .  T
C1982      N1987   1.157       .  T
C1983      N1985   1.157       .  T
C1989      C1990   1.413       .  A
C1989      C1994   1.409       .  A
C1990      C1991   1.418       .  A
C1990      C1995   1.452       .  S
C1991      C1992   1.441       .  A
C1991      C1998   1.454       .  S
C1992      C1993   1.431       .  A
C1993      C1994   1.406       .  A
C1993      C1996   1.448       .  S
C1994      C1997   1.452       .  S
C1996      N2001   1.158       .  T
C1997      N1999   1.158       .  T
C1998      N2000   1.158       .  T
C2003      C2004   1.414       .  A
C2003      C2008   1.408       .  A
C2004      C2005   1.414       .  A
C2004      C2009   1.453       .  S
C2005      C2006   1.441       .  A
C2005      C2012   1.453       .  S
C2006      C2007   1.442       .  A
C2007      C2008   1.415       .  A
C2007      C2010   1.452       .  S
C2008      C2011   1.453       .  S
C2010      N2015   1.158       .  T
C2012      N2014   1.156       .  T
C2017      C2018   1.439       .  A
C2017      C2022   1.431       .  A
C2018      C2019   1.402       .  A
C2018      C2023   1.445       .  S
C2019      C2020   1.392       .  A
C2019      C2026   1.456       .  S
C2020      C2021   1.405       .  A
C2021      C2022   1.406       .  A
C2021      C2024   1.455       .  S
C2022      C2025   1.451       .  S
C2023      N2030   1.157       .  T
C2024      N2029   1.157       .  T
C2025      N2027   1.157       .  T
C2031      C2032   1.439       .  A
C2031      C2036   1.424       .  A
C2032      C2033   1.407       .  A
C2032      C2037   1.463       .  S
C2033      C2034   1.428       .  A
C2033      C2040   1.448       .  S
C2034      C2035   1.448       .  A
C2035      C2036   1.420       .  A
C2035      C2038   1.454       .  S
C2036      C2039   1.454       .  S
C2037      N2044   1.158       .  T
C2038      N2043   1.158       .  T
C2039      N2041   1.157       .  T
C2040      N2042   1.158       .  T
C2045      C2046   1.402       .  A
C2045      C2050   1.393       .  A
C2046      C2047   1.415       .  A
C2046      C2051   1.455       .  S
C2047      C2048   1.449       .  A
C2047      C2054   1.452       .  S
C2048      C2049   1.452       .  A
C2049      C2050   1.411       .  A
C2049      C2052   1.443       .  S
C2050      C2053   1.459       .  S
C2051      N2058   1.158       .  T
C2052      N2057   1.156       .  T
C2053      N2055   1.157       .  T
C2054      N2056   1.157       .  T
C2059      C2060   1.442       .  A
C2059      C2064   1.444       .  A
C2060      C2061   1.404       .  A
C2060      C2065   1.455       .  S
C2061      C2062   1.404       .  A
C2061      C2068   1.457       .  S
C2062      C2063   1.407       .  A
C2063      C2064   1.418       .  A
C2063      C2066   1.452       .  S
C2064      C2067   1.453       .  S
C2065      N2072   1.158       .  T
C2066      N2071   1.157       .  T
C2067      N2069   1.158       .  T
C2068      N2070   1.158       .  T
C2073      C2074   1.444       .  A
C2073      C2078   1.447       .  A
C2074      C2075   1.412       .  A
C2074      C2079   1.447       .  S
C2075      C2076   1.400       .  A
C2075      C2082   1.453       .  S
C2076      C2077   1.400       .  A
C2077      C2078   1.408       .  A
C2077      C2080   1.453       .  S
C2078      C2081   1.451       .  S
C2079      N2086   1.158       .  T
C2080      N2085   1.157       .  T
C2081      N2083   1.156       .  T
C2082      N2084   1.157       .  T
C2087      C2143   1.615       .  S
C2087      C2088   1.451       .  A
C2087      C2092   1.458       .  A
C2088      C2089   1.417       .  A
C2088      C2093   1.448       .  S
C2089      C2090   1.393       .  A
C2089      C2096   1.456       .  S
C2090      C2091   1.395       .  A
C2091      C2092   1.419       .  A
C2091      C2094   1.460       .  S
C2092      C2095   1.448       .  S
C2093      N2406   1.157       .  T
C2094      N2099   1.158       .  T
C2095      N2097   1.159       .  T
N2100      C2399   1.157       .  T
C2101      C2143   1.583       .  S
C2101      C2102   1.427       .  A
C2101      C2412   1.437       .  A
C2102      C2103   1.415       .  A
C2102      C2107   1.450       .  S
C2103      C2104   1.420       .  A
C2103      C2110   1.454       .  S
C2104      C2411   1.402       .  A
C2105      C2410   1.402   1_554  A
C2105      C2106   1.404       .  A
C2105      C2108   1.453       .  S
C2106      C2407   1.437   1_554  A
C2106      C2109   1.452       .  S
C2107      N2114   1.157       .  T
C2108      N2113   1.157       .  T
C2109      N2111   1.156       .  T
C2110      N2112   1.158       .  T
C2115      C2116   1.417       .  A
C2115      C2120   1.406       .  A
C2116      C2117   1.429       .  A
C2116      C2121   1.451       .  S
C2117      C2118   1.438       .  A
C2117      C2124   1.450       .  S
C2118      C2143   1.612       .  S
C2118      C2425   1.436       .  A
C2119      C2424   1.436       .  A
C2119      C2426   1.395       .  A
C2119      C2122   1.450       .  S
C2120      C2425   1.395       .  A
C2120      C2429   1.452       .  S
C2121      N2128   1.157       .  T
C2122      N2127   1.158       .  T
C2123      C2426   1.452   1_554  S
C2123      N2125   1.157   1_655  T
C2124      N2126   1.158       .  T
C2129      C2130   1.440       .  A
C2129      C2134   1.436       .  A
C2130      C2131   1.424       .  A
C2130      C2135   1.444       .  S
C2131      C2132   1.440       .  A
C2131      C2138   1.456       .  S
C2132      C2133   1.416       .  A
C2133      C2134   1.397       .  A
C2133      C2136   1.449       .  S
C2134      C2137   1.443       .  S
C2135      N2142   1.157       .  T
C2136      N2141   1.158       .  T
C2137      N2139   1.157       .  T
C2138      N2140   1.158       .  T
C2143      C2435   1.599       .  S
C2144      C2354   1.605       .  S
C2144      C2365   1.602       .  S
C2144      C2379   1.592       .  S
C2144      C2438   1.599       .  S
C2145      C2298   1.620       .  S
C2145      C2312   1.590       .  S
C2145      C2323   1.571       .  S
C2145      C2340   1.616       .  S
C2146      C2256   1.616       .  S
C2146      C2267   1.613       .  S
C2146      C2281   1.635       .  S
C2146      C2337   1.596       .  S
C2147      N2165   1.354       .  A
C2147      C2184   1.463       .  S
C2147      C2421   1.498       .  S
N2148      N2165   1.329       .  A
N2148      N2170   1.317       .  A
C2149      N2174   1.339       .  A
C2149      C2187   1.458       .  S
C2149      H2194   1.082       .  S
H2150      C2191   1.080       .  S
C2151      N2175   1.346       .  A
C2151      H2180   1.081       .  S
Co2152     N2160   2.095       .  S
Co2152     N2168   2.079       .  S
N2153      C2191   1.343       .  A
N2153      N2160   1.319       .  A
N2153     Co2154   2.089       .  S
Co2154     N2157   2.105       .  S
Co2154     N2174   2.093       .  S
C2155      C2230   1.485       .  S
N2156      N2163   1.320       .  A
N2156      N2186   1.323       .  A
N2156     Co2189   2.072       .  S
N2157      N2193   1.329       .  A
N2158      C2187   1.350       .  A
N2158      N2168   1.325       .  A
H2159      C2184   1.077   1_455  S
N2160      N2181   1.323       .  A
N2161      N2179   1.317       .  A
N2161      N2166   1.327       .  A
C2162      N2166   1.358       .  A
C2162      C2190   1.455       .  S
C2162      C2309   1.497       .  S
N2163      C2178   1.326       .  A
N2163     Co2185   2.044       .  S
C2164      N2192   1.348       .  A
C2164      H2198   1.081       .  S
C2167      N2188   1.349   1_445  A
C2167      C2236   1.482   1_545  S
N2168      N2174   1.322       .  A
N2169      C2195   1.345       .  A
N2169      N2171   1.318       .  A
N2169     Co2185   2.088       .  S
N2170      C2184   1.334       .  A
N2171      N2199   1.315       .  A
N2171     Co2189   2.056       .  S
H2173      C2190   1.079       .  S
N2175     Co2189   2.089       .  S
N2176      N2188   1.326       .  A
C2177      N2181   1.352       .  A
C2177      C2191   1.472       .  S
C2177      C2295   1.502       .  S
C2178      C2197   1.440       .  S
C2178      H2182   1.082       .  S
N2179      C2190   1.335       .  A
C2183      N2199   1.338       .  A
C2183      C2195   1.471       .  S
C2183      C2410   1.485       .  S
N2186      C2197   1.349       .  A
C2187      C2396   1.481       .  S
C2197      C2326   1.456       .  S
C2200      N2218   1.349       .  A
C2200      C2237   1.472       .  S
C2200      C2284   1.503       .  S
N2201      N2218   1.329       .  A
N2201      N2223   1.323       .  A
N2201     Co2238   2.093       .  S
C2202      N2227   1.344       .  A
C2202      C2240   1.458       .  S
C2202      H2247   1.081       .  S
H2203      C2244   1.081       .  S
C2204      N2228   1.339       .  A
C2204      C2208   1.460       .  S
C2204      H2233   1.080       .  S
Co2205     N2223   2.111       .  S
Co2205     N2213   2.112       .  S
Co2205     N2245   2.069       .  S
N2206      C2244   1.343       .  A
N2206     Co2207   2.095       .  S
Co2207     N2210   2.087       .  S
Co2207     N2214   2.073       .  S
C2208      N2246   1.353       .  A
C2208      C2253   1.494       .  S
N2209      N2216   1.321       .  A
N2209      N2239   1.324       .  A
N2210      N2228   1.320       .  A
N2210      N2246   1.326       .  A
N2211      C2240   1.352       .  A
N2211      N2221   1.326       .  A
H2212      C2237   1.081       .  S
N2213      N2234   1.331       .  A
N2214      N2232   1.320       .  A
N2214      N2219   1.322       .  A
C2215      N2219   1.345       .  A
C2215      C2243   1.461       .  S
C2215      C2351   1.481       .  S
N2216      C2231   1.339       .  A
C2217      N2245   1.331       .  A
C2217      C2220   1.451       .  S
C2217      H2251   1.081       .  S
C2220      N2241   1.355       .  A
C2220      C2368   1.484       .  S
N2221      N2227   1.319       .  A
N2222      C2248   1.345       .  A
N2222     Co2238   2.103       .  S
N2223      C2237   1.346       .  A
N2224      N2252   1.328       .  A
N2224     Co2242   2.090       .  S
H2225      C2248   1.081       .  S
H2226      C2243   1.081       .  S
N2228     Co2242   2.082       .  S
N2229      N2241   1.328       .  A
N2229      N2245   1.321       .  A
N2229     Co2238   2.093       .  S
C2231      C2250   1.459       .  S
C2231      H2235   1.081       .  S
N2232      C2243   1.339       .  A
N2232     Co2242   2.079       .  S
C2236      C2248   1.466   1_455  S
N2239      C2250   1.348       .  A
C2240      C2270   1.492       .  S
C2250      C2382   1.482       .  S
C2253      C2254   1.407       .  A
C2253      C2258   1.405       .  A
C2254      C2255   1.402       .  A
C2254      C2259   1.449       .  S
C2255      C2256   1.424       .  A
C2255      C2262   1.446       .  S
C2256      C2257   1.457       .  A
C2257      C2258   1.423       .  A
C2257      C2260   1.448       .  S
C2258      C2261   1.458       .  S
C2259      N2266   1.157       .  T
C2260      N2265   1.157       .  T
C2261      N2263   1.158       .  T
C2262      N2264   1.158       .  T
C2267      C2268   1.441       .  A
C2267      C2272   1.442       .  A
C2268      C2269   1.415       .  A
C2268      C2273   1.441       .  S
C2269      C2270   1.400       .  A
C2269      C2276   1.457       .  S
C2270      C2271   1.407       .  A
C2271      C2272   1.422       .  A
C2271      C2274   1.452       .  S
C2272      C2275   1.456       .  S
C2273      N2280   1.156       .  T
C2274      N2279   1.157       .  T
C2275      N2277   1.158       .  T
C2276      N2278   1.157       .  T
C2281      C2282   1.448       .  A
C2281      C2286   1.422       .  A
C2282      C2283   1.432       .  A
C2282      C2287   1.447       .  S
C2283      C2284   1.413       .  A
C2283      C2290   1.447       .  S
C2284      C2285   1.406       .  A
C2285      C2286   1.398       .  A
C2285      C2288   1.446       .  S
C2286      C2289   1.457       .  S
C2287      N2294   1.157       .  T
C2288      N2293   1.157       .  T
C2289      N2291   1.157       .  T
C2295      C2296   1.413       .  A
C2295      C2300   1.409       .  A
C2296      C2297   1.418       .  A
C2296      C2301   1.452       .  S
C2297      C2298   1.441       .  A
C2297      C2304   1.454       .  S
C2298      C2299   1.431       .  A
C2299      C2300   1.406       .  A
C2299      C2302   1.448       .  S
C2300      C2303   1.452       .  S
C2302      N2307   1.158       .  T
C2303      N2305   1.158       .  T
C2304      N2306   1.158       .  T
C2309      C2310   1.414       .  A
C2309      C2314   1.408       .  A
C2310      C2311   1.414       .  A
C2310      C2315   1.453       .  S
C2311      C2312   1.441       .  A
C2311      C2318   1.453       .  S
C2312      C2313   1.442       .  A
C2313      C2314   1.415       .  A
C2313      C2316   1.452       .  S
C2314      C2317   1.453       .  S
C2316      N2321   1.158       .  T
C2318      N2320   1.156       .  T
C2323      C2324   1.439       .  A
C2323      C2328   1.431       .  A
C2324      C2325   1.402       .  A
C2324      C2329   1.445       .  S
C2325      C2326   1.392       .  A
C2325      C2332   1.456       .  S
C2326      C2327   1.405       .  A
C2327      C2328   1.406       .  A
C2327      C2330   1.455       .  S
C2328      C2331   1.451       .  S
C2329      N2336   1.157       .  T
C2330      N2335   1.157       .  T
C2331      N2333   1.157       .  T
C2337      C2338   1.439       .  A
C2337      C2342   1.424       .  A
C2338      C2339   1.407       .  A
C2338      C2343   1.463       .  S
C2339      C2340   1.428       .  A
C2339      C2346   1.448       .  S
C2340      C2341   1.448       .  A
C2341      C2342   1.420       .  A
C2341      C2344   1.454       .  S
C2342      C2345   1.454       .  S
C2343      N2350   1.158       .  T
C2344      N2349   1.158       .  T
C2345      N2347   1.157       .  T
C2346      N2348   1.158       .  T
C2351      C2352   1.402       .  A
C2351      C2356   1.393       .  A
C2352      C2353   1.415       .  A
C2352      C2357   1.455       .  S
C2353      C2354   1.449       .  A
C2353      C2360   1.452       .  S
C2354      C2355   1.452       .  A
C2355      C2356   1.411       .  A
C2355      C2358   1.443       .  S
C2356      C2359   1.459       .  S
C2357      N2364   1.158       .  T
C2358      N2363   1.156       .  T
C2359      N2361   1.157       .  T
C2360      N2362   1.157       .  T
C2365      C2366   1.442       .  A
C2365      C2370   1.444       .  A
C2366      C2367   1.404       .  A
C2366      C2371   1.455       .  S
C2367      C2368   1.404       .  A
C2367      C2374   1.457       .  S
C2368      C2369   1.407       .  A
C2369      C2370   1.418       .  A
C2369      C2372   1.452       .  S
C2370      C2373   1.453       .  S
C2371      N2378   1.158       .  T
C2372      N2377   1.157       .  T
C2373      N2375   1.158       .  T
C2374      N2376   1.158       .  T
C2379      C2380   1.444       .  A
C2379      C2384   1.447       .  A
C2380      C2381   1.412       .  A
C2380      C2385   1.447       .  S
C2381      C2382   1.400       .  A
C2381      C2388   1.453       .  S
C2382      C2383   1.400       .  A
C2383      C2384   1.408       .  A
C2383      C2386   1.453       .  S
C2384      C2387   1.451       .  S
C2385      N2392   1.158       .  T
C2386      N2391   1.157       .  T
C2387      N2389   1.156       .  T
C2388      N2390   1.157       .  T
C2393      C2394   1.451   1_556  A
C2393      C2398   1.458       .  A
C2394      C2395   1.417   1_554  A
C2394      C2399   1.448       .  S
C2395      C2396   1.393       .  A
C2395      C2402   1.456   1_556  S
C2396      C2397   1.395       .  A
C2397      C2398   1.419       .  A
C2397      C2400   1.460       .  S
C2398      C2401   1.448       .  S
C2400      N2405   1.158       .  T
C2401      N2403   1.159       .  T
C2407      C2408   1.427       .  A
C2408      C2409   1.415       .  A
C2408      C2413   1.450       .  S
C2409      C2410   1.420       .  A
C2409      C2416   1.454       .  S
C2411      C2412   1.404       .  A
C2411      C2414   1.453       .  S
C2412      C2415   1.452       .  S
C2413      N2420   1.157       .  T
C2414      N2419   1.157       .  T
C2415      N2417   1.156       .  T
C2416      N2418   1.158       .  T
C2421      C2422   1.417       .  A
C2421      C2426   1.406       .  A
C2422      C2423   1.429       .  A
C2422      C2427   1.451       .  S
C2423      C2424   1.438       .  A
C2423      C2430   1.450       .  S
C2425      C2428   1.450       .  S
C2427      N2434   1.157       .  T
C2428      N2433   1.158       .  T
C2429      N2431   1.157   1_655  T
C2430      N2432   1.158       .  T
C2435      C2436   1.440       .  A
C2435      C2440   1.436       .  A
C2436      C2437   1.424       .  A
C2436      C2441   1.444       .  S
C2437      C2438   1.440       .  A
C2437      C2444   1.456       .  S
C2438      C2439   1.416       .  A
C2439      C2440   1.397       .  A
C2439      C2442   1.449       .  S
C2440      C2443   1.443       .  S
C2441      N2448   1.157       .  T
C2442      N2447   1.158       .  T
C2443      N2445   1.157       .  T
C2444      N2446   1.158       .  T
