geometry optimzed in LAMMPS
_audit_creation_date              2020-11-30 
_audit_creation_method            'lammps2cif' 
_symmetry_space_group_name_H-M    'P1' 
_symmetry_Int_Tables_number       1 
_symmetry_cell_setting            triclinic 
loop_ 
_symmetry_equiv_pos_as_xyz 
  x,y,z 
_cell_length_a                    18.546218548353327 
_cell_length_b                    48.418167902300105 
_cell_length_c                    33.34824392085617 
_cell_angle_alpha                 90.28546658579965 
_cell_angle_beta                  89.78692507855588 
_cell_angle_gamma                 89.60063426601552 
loop_ 
_atom_site_label 
_atom_site_type_symbol 
_atom_site_fract_x 
_atom_site_fract_y 
_atom_site_fract_z 
_atom_site_charge 
N1          N  0.79148074  0.81870976  0.20625989    -0.07540
N2          N  0.82857161  0.80919293  0.23739786    -0.59660
N3          N  0.85128874  0.88041616  0.17651413    -0.07220
N4          N  0.88859067  0.90372520  0.17719346    -0.61780
N5          N  0.80685355  0.88004392  0.20710941    -0.06810
N6          N  0.81323951  0.90238514  0.22947110    -0.59630
N7          N  0.82969920  0.81481201  0.17347649    -0.06490
N8          N  0.88673840  0.79970067  0.18095081    -0.62140
C9          C  0.88857296  0.79729341  0.22091730     0.94640
C10         C  0.86457729  0.91696724  0.21087009     0.94420
N11         N  0.80604502  0.88056415  0.05270936    -0.07720
N12         N  0.81328504  0.90352377  0.03194814    -0.60230
N13         N  0.83189209  0.81484933  0.08331995    -0.05840
N14         N  0.88870392  0.79966082  0.07495959    -0.61490
N15         N  0.79277602  0.81837449  0.05102774    -0.07750
N16         N  0.82849145  0.80844416  0.01936361    -0.60500
N17         N  0.85130303  0.87999858  0.08282773    -0.05480
N18         N  0.89059493  0.90271334  0.08321179    -0.61570
Mn19       Mn  0.84180763  0.84761512  0.12903099     1.18440
C20         C  0.86632553  0.91702456  0.05111507     0.96720
C21         C  0.88910569  0.79672242  0.03487374     0.97390
N22         N  0.65005204  0.89083268  0.20573650    -0.07770
N23         N  0.66062764  0.91023694  0.23246764    -0.64080
N24         N  0.56534587  0.83604485  0.17723363    -0.06570
N25         N  0.50503312  0.82323985  0.18569503    -0.64750
N26         N  0.61429232  0.82949858  0.20437865    -0.07280
N27         N  0.58684026  0.81254850  0.23175504    -0.64340
N28         N  0.60401532  0.89886445  0.17806797    -0.06170
N29         N  0.58081807  0.92438241  0.18724624    -0.65030
Mn30       Mn  0.71452366  0.85357687  0.20646479     1.10660
C31         C  0.61851230  0.93126094  0.22124257     0.97940
C32         C  0.51819373  0.80829136  0.21929364     0.98020
N33         N  0.61497263  0.82729585  0.05301176    -0.07290
N34         N  0.58862452  0.80953363  0.02608211    -0.62660
N35         N  0.60202688  0.89804099  0.07690753    -0.06600
N36         N  0.57870409  0.92318034  0.06557496    -0.59390
N37         N  0.64832593  0.88882600  0.05003350    -0.07910
N38         N  0.65866393  0.90673451  0.02168487    -0.62230
N39         N  0.56487592  0.83441209  0.07954827    -0.06900
N40         N  0.50482650  0.82123722  0.07098115    -0.59410
Mn41       Mn  0.71466822  0.85259107  0.05121761     1.20190
Mn42       Mn  0.57993866  0.86779356  0.12799162     1.10090
Cl43       Cl  0.71061728  0.85447242  0.12870024    -0.87380
C44         C  0.51912843  0.80546564  0.03785305     0.94950
C45         C  0.61680422  0.92835378  0.03087204     0.94750
C46         C  0.96085591  0.79466481  0.24143376    -0.00850
C47         C  0.96723848  0.78419178  0.27919189    -0.00850
N48         N  0.12182972  0.82437820  0.04996193    -0.07540
N49         N  0.09135576  0.80935695  0.02135371    -0.59660
N50         N  0.11039145  0.89189290  0.07827180    -0.07220
N51         N  0.09625555  0.91865728  0.07953106    -0.61780
N52         N  0.15532966  0.88638360  0.04870134    -0.06810
N53         N  0.17235346  0.90911469  0.02925224    -0.59630
N54         N  0.07585794  0.82932861  0.07910207    -0.06490
N55         N  0.01477270  0.81733981  0.07147257    -0.62140
C56         C  0.02406754  0.80465149  0.03578397     0.94640
C57         C  0.13496961  0.92902862  0.04863377     0.94420
N58         N  0.15075660  0.88843772  0.20025705    -0.07720
N59         N  0.15912741  0.91152775  0.22091960    -0.60230
N60         N  0.07433249  0.83012409  0.17308580    -0.05840
N61         N  0.01361504  0.81789891  0.18160037    -0.61490
N62         N  0.12059645  0.82623337  0.20229965    -0.07750
N63         N  0.09077180  0.81166028  0.23162261    -0.60500
N64         N  0.10456212  0.89206551  0.17114033    -0.05480
N65         N  0.07964533  0.91750695  0.17145688    -0.61570
Mn66       Mn  0.08874817  0.86093220  0.12519568     1.18440
C67         C  0.11394594  0.92939915  0.20266709     0.96720
C68         C  0.02354001  0.80608747  0.21781568     0.97390
N69         N  0.31206320  0.87361886  0.04615407    -0.07770
N70         N  0.32853393  0.88740537  0.01385659    -0.64080
N71         N  0.33202252  0.80935409  0.08266015    -0.06570
N72         N  0.38724723  0.79322000  0.07536063    -0.64750
N73         N  0.29364706  0.81326424  0.05010428    -0.07280
N74         N  0.32906583  0.80266275  0.01910528    -0.64340
N75         N  0.36581506  0.87222647  0.07159913    -0.06170
N76         N  0.42256722  0.88492295  0.05529430    -0.65030
Mn77       Mn  0.21947021  0.84872393  0.04808027     1.10660
C78         C  0.39688800  0.89460148  0.01937555     0.97940
C79         C  0.38806749  0.79048377  0.03554323     0.98020
N80         N  0.29476195  0.81673401  0.20323462    -0.07290
N81         N  0.32842782  0.80671502  0.23510521    -0.62660
N82         N  0.36244614  0.87514281  0.17349531    -0.06600
N83         N  0.41793887  0.88969339  0.18720739    -0.59390
N84         N  0.30881093  0.87745760  0.19922126    -0.07910
N85         N  0.32397704  0.89390947  0.22895254    -0.62230
N86         N  0.33415331  0.81175681  0.17116248    -0.06900
N87         N  0.38856951  0.79556111  0.17979256    -0.59410
Mn88       Mn  0.21804266  0.85156596  0.20207921     1.20190
Mn89       Mn  0.35072280  0.84278348  0.12471563     1.10090
Cl90       Cl  0.21936040  0.85080755  0.12511063    -0.87380
C91         C  0.38762424  0.79363182  0.21982524     0.94950
C92         C  0.39113710  0.90180319  0.22137780     0.94750
C93         C  0.96073461  0.79379998  0.01293194    -0.00850
C94         C  0.96638583  0.78444036  0.47434473    -0.00850
N95         N  0.79888162  0.75554041  0.45220963    -0.07540
N96         N  0.85973738  0.75511811  0.47215064    -0.59660
N97         N  0.62877081  0.76961355  0.42456887    -0.07220
N98         N  0.56720811  0.78342799  0.42896641    -0.61780
N99         N  0.63290508  0.74983876  0.45152587    -0.06810
N100        N  0.57580574  0.75013836  0.47513155    -0.59630
N101        N  0.79997986  0.77447536  0.42413112    -0.06490
N102        N  0.86250920  0.78774366  0.42518555    -0.62140
C103        C  0.89925901  0.77498411  0.45518678     0.94640
C104        C  0.53537602  0.77110572  0.46085866     0.94420
N105        N  0.63232116  0.74927124  0.30394474    -0.07720
N106        N  0.57574870  0.75004114  0.27998727    -0.60230
N107        N  0.80066988  0.77388709  0.33039179    -0.05840
N108        N  0.86281974  0.78741223  0.32873462    -0.61490
N109        N  0.80008361  0.75442818  0.30277390    -0.07750
N110        N  0.86108177  0.75397760  0.28249793    -0.60500
N111        N  0.62905482  0.76954588  0.33042413    -0.05480
N112        N  0.56897668  0.78415803  0.32538631    -0.61570
Mn113      Mn  0.71445092  0.77385080  0.37740010     1.18440
C114        C  0.53673931  0.77190488  0.29351205     0.96720
C115        C  0.90021096  0.77434454  0.29887771     0.97390
N116        N  0.66083402  0.68309275  0.45565793    -0.07770
N117        N  0.63809087  0.66820755  0.48673570    -0.64080
N118        N  0.82998754  0.67542609  0.42927427    -0.06570
N119        N  0.87376044  0.65678008  0.44554368    -0.64750
N120        N  0.81737025  0.69516856  0.45561196    -0.07280
N121        N  0.85343622  0.69133448  0.48874239    -0.64340
N122        N  0.66923133  0.66676103  0.42443764    -0.06170
N123        N  0.64815803  0.64179645  0.43228998    -0.65030
Mn124      Mn  0.72499023  0.72150875  0.45448037     1.10660
C125        C  0.62996555  0.64234512  0.47102000     0.97940
C126        C  0.88911755  0.66772155  0.48224944     0.98020
N127        N  0.81668689  0.69349282  0.30145246    -0.07290
N128        N  0.85041675  0.68828989  0.26772021    -0.62660
N129        N  0.66716746  0.66659808  0.33596715    -0.06600
N130        N  0.64561395  0.64147422  0.32961073    -0.59390
N131        N  0.66030275  0.68182980  0.30368643    -0.07910
N132        N  0.63902335  0.66574163  0.27349958    -0.62230
N133        N  0.82801410  0.67396481  0.32803035    -0.06900
N134        N  0.86805036  0.65410395  0.31131585    -0.59410
Mn135      Mn  0.72488767  0.72030168  0.30217343     1.20190
Mn136      Mn  0.75077057  0.67110549  0.37936632     1.10090
Cl137      Cl  0.72758193  0.72179657  0.37829216    -0.87380
C138        C  0.88220080  0.66389602  0.27392154     0.94950
C139        C  0.63009375  0.64050847  0.29085078     0.94750
N140        N  0.13247894  0.74873370  0.30006369    -0.07540
N141        N  0.07421242  0.75176889  0.27756983    -0.59660
N142        N  0.30364397  0.76443885  0.32998308    -0.07220
N143        N  0.36357011  0.77908139  0.32721559    -0.61780
N144        N  0.30264715  0.74517815  0.30198073    -0.06810
N145        N  0.36159607  0.74645984  0.27962041    -0.59630
N146        N  0.13289118  0.76768793  0.32868699    -0.06490
N147        N  0.07459341  0.78367329  0.32622182    -0.62140
C148        C  0.03863474  0.77368658  0.29399332     0.94640
C149        C  0.39960105  0.76748171  0.29590262     0.94420
N150        N  0.30087032  0.74401107  0.45042809    -0.07720
N151        N  0.35931139  0.74502089  0.47318280    -0.60230
N152        N  0.13147037  0.76760178  0.42323096    -0.05840
N153        N  0.07377375  0.78392238  0.42649211    -0.61490
N154        N  0.13012383  0.74831748  0.45099773    -0.07750
N155        N  0.07194556  0.75143977  0.47374245    -0.60500
N156        N  0.30279406  0.76373193  0.42332235    -0.05480
N157        N  0.36283402  0.77828226  0.42708917    -0.61570
Mn158      Mn  0.21748254  0.76732824  0.37632554     1.18440
C159        C  0.39812885  0.76631942  0.45812160     0.96720
C160        C  0.03717344  0.77369759  0.45837485     0.97390
N161        N  0.29320001  0.67929779  0.30012998    -0.07770
N162        N  0.33666808  0.66724844  0.27318638    -0.64080
N163        N  0.12409098  0.66410613  0.32520023    -0.06570
N164        N  0.10298365  0.63986823  0.31119184    -0.64750
N165        N  0.13101866  0.68196974  0.29567322    -0.07280
N166        N  0.11475993  0.66969585  0.26151696    -0.64340
N167        N  0.28553004  0.66286404  0.33087241    -0.06170
N168        N  0.32375571  0.64042671  0.32659472    -0.65030
Mn169      Mn  0.21483112  0.71444792  0.29807385     1.10660
C170        C  0.35541760  0.64275758  0.29075379     0.97940
C171        C  0.09782984  0.64347680  0.27142837     0.98020
N172        N  0.12437374  0.68193529  0.45050211    -0.07290
N173        N  0.10730791  0.66974379  0.48427399    -0.62660
N174        N  0.27987560  0.66095479  0.41962072    -0.06600
N175        N  0.31507172  0.63780746  0.42415223    -0.59390
N176        N  0.28608582  0.67708558  0.45105020    -0.07910
N177        N  0.32571352  0.66420514  0.47874849    -0.62230
N178        N  0.12052679  0.66369040  0.42096780    -0.06900
N179        N  0.10240938  0.63916737  0.43506211    -0.59410
Mn180      Mn  0.21064735  0.71350464  0.45198447     1.20190
Mn181      Mn  0.20080432  0.66434338  0.37403700     1.10090
Cl182      Cl  0.20953737  0.71533324  0.37514942    -0.87380
C183        C  0.09482007  0.64308753  0.47471334     0.94950
C184        C  0.34455775  0.63981497  0.46042604     0.94750
C185        C  0.45859130  0.79264212  0.24083700    -0.00850
C186        C  0.46509174  0.77958395  0.27686560    -0.00850
C187        C  0.46414819  0.77820600  0.47792172    -0.00850
C188        C  0.45922134  0.78991256  0.01523528    -0.00850
C189        C  0.53323215  0.95289293  0.39210192    -0.00850
C190        C  0.53075270  0.95539908  0.35076446    -0.00850
C191        C  0.03151135  0.60873092  0.14714885    -0.00850
C192        C  0.04074691  0.61258774  0.10693010    -0.00850
C193        C  0.50001090  0.54511645  0.00725144    -0.00850
C194        C  0.50262324  0.51709589  0.00183301    -0.00850
C195        C  0.50729904  0.54756343  0.23722438    -0.00850
C196        C  0.50333668  0.51984602  0.24429222    -0.00850
N197        N  0.26726983  0.40264181  0.07573789    -0.07540
N198        N  0.29689403  0.42664455  0.06976769    -0.59660
N199        N  0.12886531  0.36998157  0.04645732    -0.07220
N200        N  0.09568049  0.37424003  0.01248625    -0.61780
N201        N  0.11241870  0.38934253  0.07290811    -0.06810
N202        N  0.06986161  0.40805032  0.05602415    -0.59630
N203        N  0.28712795  0.38451024  0.04837359    -0.06490
N204        N  0.33117242  0.39653872  0.02215891    -0.62140
C205        C  0.33649050  0.42288448  0.03666191     0.94640
C206        C  0.05928901  0.39784609  0.01859370     0.94420
N207        N  0.15278130  0.29107578  0.07846881    -0.07720
N208        N  0.09200552  0.27649000  0.07554261    -0.60230
N209        N  0.32171300  0.31818128  0.05196719    -0.05840
N210        N  0.37901723  0.31854757  0.02833421    -0.61490
N211        N  0.32734647  0.29850530  0.07901468    -0.07750
N212        N  0.39042549  0.28546083  0.07436034    -0.60500
N213        N  0.15535964  0.30893591  0.04886054    -0.05480
N214        N  0.09816485  0.30688738  0.02569696    -0.61570
Mn215      Mn  0.22566167  0.34488923  0.04825209     1.18440
C216        C  0.05873866  0.28662123  0.04201790     0.96720
C217        C  0.42223077  0.29829567  0.04257915     0.97390
N218        N  0.11550921  0.39164209  0.17319819    -0.07770
N219        N  0.07114649  0.41053768  0.18848264    -0.64080
N220        N  0.28993558  0.38824153  0.19496112    -0.06570
N221        N  0.32920665  0.40303044  0.22059585    -0.64750
N222        N  0.27054938  0.40418752  0.16499403    -0.07280
N223        N  0.29702202  0.42891818  0.16836060    -0.64340
N224        N  0.13361161  0.37393868  0.20135181    -0.06170
N225        N  0.10046050  0.37952565  0.23512852    -0.65030
Mn226      Mn  0.18900231  0.39651078  0.12182867     1.10660
C227        C  0.06151468  0.40204333  0.22678637     0.97940
C228        C  0.33338137  0.42835680  0.20268651     0.98020
N229        N  0.32680069  0.29954140  0.17371891    -0.07290
N230        N  0.38606274  0.28461717  0.18042102    -0.62660
N231        N  0.15678521  0.31275861  0.20425677    -0.06600
N232        N  0.09985406  0.31201943  0.22813007    -0.59390
N233        N  0.15311210  0.29355424  0.17619098    -0.07910
N234        N  0.09192999  0.27942090  0.18095376    -0.62230
N235        N  0.32366345  0.32044179  0.19919724    -0.06900
N236        N  0.37905219  0.31967377  0.22412637    -0.59410
Mn237      Mn  0.23957948  0.29381241  0.12680373     1.20190
Mn238      Mn  0.22880540  0.34847917  0.20065364     1.10090
Cl239      Cl  0.22132816  0.34584496  0.12442116    -0.87380
C240        C  0.41818709  0.29738784  0.21206800     0.94950
C241        C  0.05937778  0.29124470  0.21386051     0.94750
N242        N  0.65424848  0.29713222  0.07897265    -0.07540
N243        N  0.59179981  0.28407548  0.07379959    -0.59660
N244        N  0.82939706  0.31528216  0.05573966    -0.07220
N245        N  0.88563743  0.31255390  0.03165262    -0.61780
N246        N  0.82756071  0.29517347  0.08216124    -0.06810
N247        N  0.88427843  0.27850408  0.07660363    -0.59630
N248        N  0.66168013  0.31606610  0.05089635    -0.06490
N249        N  0.60583643  0.31603532  0.02640473    -0.62140
C250        C  0.56239885  0.29605005  0.04057746     0.94640
C251        C  0.91992547  0.28968975  0.04479902     0.94420
N252        N  0.81195040  0.40119827  0.08512965    -0.07720
N253        N  0.82967423  0.42558316  0.07063573    -0.60230
N254        N  0.66586092  0.38107228  0.04758158    -0.05840
N255        N  0.65208600  0.39598116  0.01509375    -0.61490
N256        N  0.65005585  0.39556501  0.07977485    -0.07750
N257        N  0.62176736  0.41936599  0.06995713    -0.60500
N258        N  0.82563247  0.38152709  0.05859815    -0.05480
N259        N  0.85534220  0.39250309  0.02666381    -0.61570
Mn260      Mn  0.74682665  0.34784797  0.05264412     1.18440
C261        C  0.85624224  0.42004172  0.03390250     0.96720
C262        C  0.62422692  0.41992576  0.02989164     0.97390
N263        N  0.82401396  0.29705323  0.17723987    -0.07770
N264        N  0.88423702  0.28217666  0.18166056    -0.64080
N265        N  0.65397155  0.31603164  0.20434112    -0.06570
N266        N  0.59723333  0.31557705  0.22815476    -0.64750
N267        N  0.65006479  0.29681038  0.17635877    -0.07280
N268        N  0.58876767  0.28288458  0.18099179    -0.64340
N269        N  0.82190626  0.31710598  0.20431207    -0.06170
N270        N  0.87923321  0.31568433  0.22775006    -0.65030
Mn271      Mn  0.73822875  0.29455598  0.12876943     1.10660
C272        C  0.91844658  0.29407241  0.21336755     0.97940
C273        C  0.55673674  0.29495567  0.21372127     0.98020
N274        N  0.63616217  0.39392826  0.17024812    -0.07290
N275        N  0.59890094  0.41650333  0.17695259    -0.62660
N276        N  0.80400536  0.38485537  0.20739120    -0.06600
N277        N  0.81838448  0.39751550  0.24151606    -0.59390
N278        N  0.79840034  0.40337469  0.17874541    -0.07910
N279        N  0.81056040  0.42849625  0.19303992    -0.62230
N280        N  0.64573641  0.38016733  0.20363911    -0.06900
N281        N  0.61937530  0.39481880  0.23407906    -0.59410
Mn282      Mn  0.72455999  0.39730982  0.12853556     1.20190
Mn283      Mn  0.73325781  0.34882350  0.20564683     1.10090
Cl284      Cl  0.73786907  0.34657911  0.12901558    -0.87380
C285        C  0.59101534  0.41777561  0.21686634     0.94950
C286        C  0.82312426  0.42455617  0.23228471     0.94750
C287        C  0.48605748  0.28785030  0.23284210    -0.00850
C288        C  0.48476435  0.28065076  0.27295683    -0.00850
C289        C  0.48820721  0.28240734  0.48115951    -0.00850
C290        C  0.49081196  0.28950644  0.02139691    -0.00850
N291        N  0.64935414  0.24656155  0.30065935    -0.07540
N292        N  0.59219986  0.24858709  0.27716170    -0.59660
N293        N  0.82216404  0.26503867  0.32930306    -0.07220
N294        N  0.88282997  0.27939189  0.32504953    -0.61780
N295        N  0.81817673  0.24641081  0.30050847    -0.06810
N296        N  0.87451252  0.24778414  0.27633012    -0.59630
N297        N  0.64767931  0.26585587  0.32877601    -0.06490
N298        N  0.58789840  0.28111174  0.32480605    -0.62140
C299        C  0.55365177  0.27010340  0.29231521     0.94640
C300        C  0.91468179  0.26838011  0.29155419     0.94420
N301        N  0.81463709  0.24280780  0.45333447    -0.07720
N302        N  0.87027363  0.24328776  0.47807767    -0.60230
N303        N  0.64741235  0.26508314  0.42408520    -0.05840
N304        N  0.59091682  0.28183952  0.42954662    -0.61490
N305        N  0.64595943  0.24494829  0.45055644    -0.07750
N306        N  0.58958446  0.24795327  0.47459637    -0.60500
N307        N  0.82001981  0.26257003  0.42630178    -0.05480
N308        N  0.88081491  0.27654646  0.43234330    -0.61570
Mn309      Mn  0.73478977  0.26631750  0.37717858     1.18440
C310        C  0.91143988  0.26438827  0.46506088     0.96720
C311        C  0.55516631  0.27085280  0.46131142     0.97390
N312        N  0.81878037  0.18170190  0.29851109    -0.07770
N313        N  0.84790905  0.16899572  0.26707568    -0.64080
N314        N  0.65921778  0.16127336  0.32445356    -0.06570
N315        N  0.63998663  0.13697089  0.31006507    -0.64750
N316        N  0.65826411  0.18006764  0.29601078    -0.07280
N317        N  0.63915024  0.16838643  0.26187712    -0.64340
N318        N  0.82236590  0.16539446  0.32975931    -0.06170
N319        N  0.85648917  0.14248410  0.32084961    -0.65030
Mn320      Mn  0.73533195  0.21438086  0.29823132     1.10660
C321        C  0.87051875  0.14427217  0.28158768     0.97940
C322        C  0.62784426  0.14159196  0.27103426     0.98020
N323        N  0.64727111  0.17773108  0.44742480    -0.07290
N324        N  0.62392230  0.16544857  0.48002366    -0.62660
N325        N  0.81493933  0.16139235  0.41961171    -0.06600
N326        N  0.84232766  0.13698418  0.42722704    -0.59390
N327        N  0.80757707  0.17612560  0.45254772    -0.07910
N328        N  0.82759310  0.16080984  0.48366611    -0.62230
N329        N  0.65338545  0.15915659  0.41849216    -0.06900
N330        N  0.63569437  0.13435550  0.43172734    -0.59410
Mn331      Mn  0.72828365  0.21115059  0.45174389     1.20190
Mn332      Mn  0.73674214  0.16308340  0.37295474     1.10090
Cl333      Cl  0.73290691  0.21394291  0.37515826    -0.87380
C334        C  0.61716118  0.13841167  0.47031345     0.94950
C335        C  0.84875332  0.13627479  0.46699324     0.94750
N336        N  0.31821870  0.25423356  0.45552911    -0.07540
N337        N  0.37552153  0.25531781  0.47865456    -0.59660
N338        N  0.14635789  0.26542155  0.42631674    -0.07220
N339        N  0.08252157  0.27783504  0.43134146    -0.61780
N340        N  0.15268660  0.24528243  0.45253484    -0.06810
N341        N  0.09534812  0.24385644  0.47590347    -0.59630
N342        N  0.32156394  0.27252581  0.42656588    -0.06490
N343        N  0.38332700  0.28647514  0.42988742    -0.62140
C344        C  0.41612705  0.27538395  0.46296326     0.94640
C345        C  0.05127818  0.26399571  0.46242726     0.94420
N346        N  0.14909080  0.24530851  0.30575042    -0.07720
N347        N  0.09327882  0.24573683  0.28124696    -0.60230
N348        N  0.31947174  0.27136020  0.32910394    -0.05840
N349        N  0.38103714  0.28525216  0.32484564    -0.61490
N350        N  0.31539532  0.25243419  0.30065758    -0.07750
N351        N  0.37240056  0.25312501  0.27695278    -0.60500
N352        N  0.14570758  0.26594557  0.33159977    -0.05480
N353        N  0.08554286  0.28049558  0.32542078    -0.61570
Mn354      Mn  0.23385586  0.27086009  0.37848373     1.18440
C355        C  0.05343912  0.26759809  0.29376896     0.96720
C356        C  0.41324464  0.27356098  0.29181836     0.97390
N357        N  0.18633198  0.18000264  0.45436149    -0.07770
N358        N  0.14856011  0.16744169  0.48280269    -0.64080
N359        N  0.35881260  0.17412226  0.42866285    -0.06570
N360        N  0.40285949  0.15575088  0.44520600    -0.64750
N361        N  0.34364454  0.19358971  0.45520692    -0.07280
N362        N  0.37886599  0.18980568  0.48864301    -0.64340
N363        N  0.20268584  0.16227233  0.42583918    -0.06170
N364        N  0.17554738  0.13809489  0.43302446    -0.65030
Mn365      Mn  0.24785486  0.21875464  0.45490714     1.10660
C366        C  0.14186895  0.14126581  0.46822905     0.97940
C367        C  0.41599885  0.16651484  0.48218040     0.98020
N368        N  0.33610312  0.19082731  0.30033040    -0.07290
N369        N  0.36766881  0.18559802  0.26591380    -0.62660
N370        N  0.19530580  0.16146812  0.33682268    -0.06600
N371        N  0.15934732  0.13839255  0.33395575    -0.59390
N372        N  0.17727529  0.17886556  0.30836349    -0.07910
N373        N  0.12980261  0.16705991  0.28413262    -0.62230
N374        N  0.35295599  0.17209084  0.32728265    -0.06900
N375        N  0.39437618  0.15279566  0.31039158    -0.59410
Mn376      Mn  0.24219260  0.21721324  0.30313439     1.20190
Mn377      Mn  0.28035803  0.16762108  0.37948131     1.10090
Cl378      Cl  0.25098161  0.21877828  0.37888289    -0.87380
C379        C  0.40359096  0.16204274  0.27235650     0.94950
C380        C  0.11823792  0.14205962  0.30153135     0.94750
C381        C  0.98749381  0.28404260  0.23290364    -0.00850
C382        C  0.98539048  0.27653635  0.27290411    -0.00850
C383        C  0.98657945  0.27862238  0.02448919    -0.00850
C384        C  0.98283297  0.27172150  0.48417466    -0.00850
C385        C  0.91690979  0.45875943  0.35387917    -0.00850
C386        C  0.91390005  0.45004267  0.39277274    -0.00850
C387        C  0.56150087  0.10946544  0.10618879    -0.00850
C388        C  0.55352221  0.10601362  0.14668186    -0.00850
C389        C  0.00624681  0.02058645  0.02662319    -0.00850
C390        C  0.99175399  0.04835738  0.02712032    -0.00850
C391        C  0.97485919  0.02222177  0.23995698    -0.00850
C392        C  0.96659437  0.04996833  0.23885734    -0.00850
C393        C  0.09766809  0.10898244  0.24642792    -0.10570
C394        C  0.07910584  0.11865955  0.28460458     0.05620
C395        C  0.03609802  0.10220134  0.30967474    -0.04340
C396        C  0.01015158  0.07698718  0.29579792    -0.08790
C397        C  0.02332868  0.06819205  0.25629128     0.04740
C398        C  0.07033743  0.08398780  0.23212503    -0.03820
Br399      Br  0.09730274  0.07375295  0.17896331    -0.03510
H400        H  0.13422052  0.12075511  0.22783855     0.08650
H401        H  0.97323705  0.06554122  0.31461586     0.06670
Br402      Br  0.00544199  0.11450906  0.36181643    -0.03940
C403        C  0.08816649  0.09618016  0.45998177    -0.10570
C404        C  0.10826455  0.11716425  0.48676905     0.05620
C405        C  0.10422896  0.11230320  0.52822062    -0.04340
C406        C  0.07586202  0.08734557  0.04182881    -0.08790
C407        C  0.04900227  0.06760544  0.51436916     0.04740
C408        C  0.05905552  0.07175910  0.47307949    -0.03820
Br409      Br  0.02748482  0.04659287  0.43201025    -0.03510
H410        H  0.09396704  0.09883454  0.42798286     0.08650
H411        H  0.07132456  0.08388832  0.07367663     0.06670
Br412      Br  0.13669723  0.13864825  0.06736453    -0.03940
C413        C  0.53127830  0.15292106  0.07158886    -0.10570
C414        C  0.50931190  0.12659270  0.08323080     0.05620
C415        C  0.45102097  0.11421567  0.06305587    -0.04340
C416        C  0.42358323  0.12656142  0.52832683    -0.08790
C417        C  0.44930032  0.15233735  0.51591214     0.04740
C418        C  0.49772604  0.16665900  0.04052410    -0.03820
Br419      Br  0.52227652  0.20467894  0.03290729    -0.03510
H420        H  0.57856248  0.16218660  0.08414988     0.08650
H421        H  0.38128806  0.11640486  0.51161925     0.06670
Br422      Br  0.41186162  0.07959649  0.07999028    -0.03940
C423        C  0.48804889  0.16207862  0.21687687    -0.10570
C424        C  0.43740170  0.14738444  0.23880220     0.05620
C425        C  0.41031207  0.12257877  0.22295493    -0.04340
C426        C  0.44085844  0.11145821  0.18777176    -0.08790
C427        C  0.50089265  0.12398012  0.16959089     0.04740
C428        C  0.52059067  0.15070239  0.18304753    -0.03820
Br429      Br  0.59465585  0.17296036  0.16055572    -0.03510
H430        H  0.50441233  0.18238600  0.22712052     0.08650
H431        H  0.42182905  0.09181817  0.17660276     0.06670
Br432      Br  0.33172883  0.10358865  0.24786451    -0.03940
C433        C  0.87995929  0.11012658  0.52867495    -0.10570
C434        C  0.86090440  0.10975713  0.48830976     0.05620
C435        C  0.85601088  0.08356750  0.46867533    -0.04340
C436        C  0.88414789  0.05988673  0.48707309    -0.08790
C437        C  0.91953732  0.06196672  0.52382875     0.04740
C438        C  0.90669919  0.08639555  0.04687699    -0.03820
Br439      Br  0.93297758  0.08912658  0.10160860    -0.03510
H440        H  0.87825963  0.12946022  0.04560362     0.08650
H441        H  0.88750766  0.04079817  0.47009715     0.06670
Br442      Br  0.81541814  0.07791462  0.41627460    -0.03940
C443        C  0.83520178  0.09547690  0.27524247    -0.10570
C444        C  0.87044329  0.11835584  0.25824291     0.05620
C445        C  0.90399899  0.11498566  0.22084992    -0.04340
C446        C  0.91143709  0.08821985  0.20515673    -0.08790
C447        C  0.89870020  0.06518944  0.22979955     0.04740
C448        C  0.84867731  0.06891062  0.26102487    -0.03820
Br449      Br  0.80966220  0.03916874  0.29104009    -0.03510
H450        H  0.80178173  0.09785150  0.30178434     0.08650
H451        H  0.94732213  0.08560236  0.18007431     0.06670
Br452      Br  0.95002159  0.14499460  0.19376561    -0.03940
C453        C  0.58411103  0.09645036  0.24361445    -0.10570
C454        C  0.63042850  0.11921311  0.24090505     0.05620
C455        C  0.67922492  0.11986301  0.20824658    -0.04340
C456        C  0.67062554  0.10092718  0.17682269    -0.08790
C457        C  0.60344253  0.08880489  0.17237302     0.04740
C458        C  0.57441663  0.07976254  0.20933661    -0.03820
Br459      Br  0.50897966  0.04960009  0.21123452    -0.03510
H460        H  0.55200376  0.09304927  0.27030203     0.08650
H461        H  0.70939923  0.09930585  0.15296987     0.06670
Br462      Br  0.75085645  0.14757922  0.20235908    -0.03940
C463        C  0.68338710  0.12525738  0.02985156    -0.10570
C464        C  0.63264760  0.11754808  0.50142742     0.05620
C465        C  0.59304930  0.09342015  0.50839539    -0.04340
C466        C  0.59374708  0.08199822  0.04735797    -0.08790
C467        C  0.62054713  0.09806375  0.07969958     0.04740
C468        C  0.67699106  0.11649863  0.06915148    -0.03820
Br469      Br  0.72911436  0.14017338  0.10417799    -0.03510
H470        H  0.71956440  0.14208715  0.02336801     0.08650
H471        H  0.55716179  0.06525178  0.05363673     0.06670
Br472      Br  0.53078627  0.07835720  0.46836970    -0.03940
C473        C  0.87665280  0.47441042  0.45404777    -0.10570
C474        C  0.85540848  0.45713381  0.42184511     0.05620
C475        C  0.80602092  0.43588384  0.43100872    -0.04340
C476        C  0.79732310  0.42779427  0.47026366    -0.08790
C477        C  0.84114529  0.43862660  0.00016375     0.04740
C478        C  0.87426874  0.46414099  0.49352151    -0.03820
Br479      Br  0.92443021  0.48300611  0.03542428    -0.03510
H480        H  0.91044991  0.49208262  0.44805017     0.08650
H481        H  0.76606832  0.40945690  0.97609002     0.06670
Br482      Br  0.77013066  0.40902484  0.39436639    -0.03940
C483        C  0.86213816  0.47064056  0.26027971    -0.10570
C484        C  0.81965861  0.44673616  0.26305243     0.05620
C485        C  0.77779110  0.44345668  0.29820638    -0.04340
C486        C  0.79185294  0.46008095  0.33172666    -0.08790
C487        C  0.85687358  0.47434037  0.33295107     0.04740
C488        C  0.87552804  0.48595675  0.29560706    -0.03820
Br489      Br  0.92668715  0.51987439  0.29413668    -0.03510
H490        H  0.88795885  0.47622410  0.23233319     0.08650
H491        H  0.75974867  0.45822132  0.35849348     0.06670
Br492      Br  0.70723672  0.41529643  0.30350892    -0.03940
C493        C  0.05387529  0.44238836  0.27265058    -0.10570
C494        C  0.02563617  0.41724150  0.25879391     0.05620
C495        C  0.97341674  0.40371388  0.28160684    -0.04340
C496        C  0.93946877  0.41778373  0.31251142    -0.08790
C497        C  0.96523549  0.44314258  0.32623766     0.04740
C498        C  0.02620173  0.45469612  0.30771102    -0.03820
Br499      Br  0.07543850  0.48553816  0.33075718    -0.03510
H500        H  0.09988121  0.45146416  0.25770322     0.08650
H501        H  0.89078432  0.40925929  0.32506042     0.06670
Br502      Br  0.94965130  0.36557119  0.27352199    -0.03940
C503        C  0.98875321  0.39559706  0.95806440    -0.10570
C504        C  0.02735764  0.41214432  0.98446299     0.05620
C505        C  0.04809197  0.43873405  0.47223770    -0.04340
C506        C  0.02145697  0.44936585  0.43606143    -0.08790
C507        C  0.97382940  0.43389993  0.41205609     0.04740
C508        C  0.96461963  0.40564216  0.42169155    -0.03820
Br509      Br  0.92906994  0.37755278  0.38670044    -0.03510
H510        H  0.97918478  0.37410935  0.96535170     0.08650
H511        H  0.03162188  0.47079129  0.42888153     0.06670
Br512      Br  0.11293169  0.46093103  0.00312529    -0.03940
C513        C  0.40237434  0.48840187  0.26564034    -0.10570
C514        C  0.43611381  0.50425041  0.23541816     0.05620
C515        C  0.42440375  0.49692954  0.19535142    -0.04340
C516        C  0.39075618  0.47222721  0.18635830    -0.08790
C517        C  0.36811642  0.45397675  0.21652775     0.04740
C518        C  0.36951091  0.46309262  0.25650542    -0.03820
Br519      Br  0.32612659  0.44241529  0.29901952    -0.03510
H520        H  0.40752217  0.49409113  0.29678880     0.08650
H521        H  0.38365788  0.46708840  0.15511378     0.06670
Br522      Br  0.46116222  0.51808684  0.15150410    -0.03940
C523        C  0.55598244  0.48104824  0.28215171    -0.10570
C524        C  0.56667939  0.50126672  0.25223037     0.05620
C525        C  0.61296971  0.49409903  0.22030939    -0.04340
C526        C  0.62701918  0.46641407  0.21259195    -0.08790
C527        C  0.59368746  0.44559159  0.23527205     0.04740
C528        C  0.56272971  0.45289543  0.27228194    -0.03820
Br529      Br  0.52013102  0.42602727  0.30694440    -0.03510
H530        H  0.52754400  0.48659332  0.30943334     0.08650
H531        H  0.65895986  0.46124411  0.18630042     0.06670
Br532      Br  0.65215799  0.51974191  0.18287405    -0.03940
C533        C  0.45099891  0.48440146  0.04828756    -0.10570
C534        C  0.44106779  0.49885485  0.01231677     0.05620
C535        C  0.39686995  0.48691105  0.98249315    -0.04660
C536        C  0.36607303  0.46072165  0.98871222    -0.08790
C537        C  0.38278208  0.44549088  0.02323815     0.04740
C538        C  0.42705185  0.45746391  0.05252168    -0.03820
Br539      Br  0.45985608  0.43675163  0.09805645    -0.03510
H540        H  0.48678015  0.49254132  0.07092228     0.08650
H541        H  0.32895133  0.45239023  0.96685156     0.06670
Br542      Br  0.38036035  0.50493966  0.43234954    -0.03940
C543        C  0.64756488  0.46963557  0.03358653    -0.10570
C544        C  0.62502280  0.44709258  0.01000080     0.05620
C545        C  0.58984238  0.45236820  0.97381317    -0.04340
C546        C  0.56546852  0.47927463  0.96618331    -0.08790
C547        C  0.56965675  0.50005686  0.99617227     0.04740
C548        C  0.61805238  0.49584335  0.02806536    -0.03820
Br549      Br  0.63179089  0.52167174  0.07107434    -0.03510
H550        H  0.67931763  0.46607620  0.06031510     0.08650
H551        H  0.53147717  0.48254209  0.94030563     0.06670
Br552      Br  0.56256051  0.42321333  0.93806672    -0.03940
C553        C  0.36781747  0.60386610  0.51372619    -0.10570
C554        C  0.38358127  0.61544428  0.47614950     0.05620
C555        C  0.42290575  0.59937211  0.44809889    -0.04340
C556        C  0.44153809  0.57221677  0.45647075    -0.08790
C557        C  0.43562796  0.56185854  0.49543870     0.04740
C558        C  0.39540727  0.57751480  0.02387383    -0.03820
Br559      Br  0.37943679  0.56397831  0.07691186    -0.03510
H560        H  0.33463550  0.61519046  0.03504661     0.08650
H561        H  0.47292350  0.56094052  0.43431501     0.06670
Br562      Br  0.46119922  0.61453988  0.39928773    -0.03940
C563        C  0.42612289  0.58687006  0.21836121    -0.10570
C564        C  0.44385337  0.56580186  0.24581234     0.05620
C565        C  0.42424309  0.56970971  0.28624466    -0.04340
C566        C  0.39399048  0.59452795  0.29844826    -0.08790
C567        C  0.38728970  0.61730897  0.27250309     0.04740
C568        C  0.40489122  0.61332387  0.23176740    -0.03820
Br569      Br  0.41369351  0.64328322  0.19472156    -0.03510
H570        H  0.43794880  0.58394368  0.18698212     0.08650
H571        H  0.37982932  0.59623889  0.32982141     0.06670
Br572      Br  0.44926411  0.54477781  0.32880112    -0.03940
C573        C  0.05585648  0.59760609  0.24338854    -0.10570
C574        C  0.10308610  0.62029786  0.24232796     0.05620
C575        C  0.15524057  0.62053466  0.21129141    -0.04340
C576        C  0.14749988  0.60256427  0.17868514    -0.08790
C577        C  0.08034702  0.59088002  0.17252068     0.04740
C578        C  0.04949220  0.58111497  0.20843087    -0.03820
Br579      Br  0.98679353  0.55009436  0.20634114    -0.03510
H580        H  0.02120754  0.59408572  0.26902580     0.08650
H581        H  0.18837208  0.60070034  0.15592812     0.06670
Br582      Br  0.23328788  0.64564659  0.21020856    -0.03940
C583        C  0.07571051  0.58511383  0.04885715    -0.10570
C584        C  0.10104636  0.60117255  0.08149881     0.05620
C585        C  0.15773194  0.61968756  0.07177518    -0.04340
C586        C  0.16458350  0.62882531  0.03265131    -0.08790
C587        C  0.11309839  0.62155296  0.50424303     0.04740
C588        C  0.07459703  0.59705599  0.01028993    -0.03820
Br589      Br  0.01278461  0.58219292  0.46985425    -0.03510
H590        H  0.03979239  0.56808216  0.05467323     0.08650
H591        H  0.20158346  0.64552422  0.52640217     0.06670
Br592      Br  0.21040090  0.64230274  0.10820571    -0.03940
C593        C  0.60672402  0.61153806  0.23010915    -0.10570
C594        C  0.62341073  0.61338220  0.27085266     0.05620
C595        C  0.63341922  0.58833393  0.29267951    -0.04340
C596        C  0.60865260  0.56368662  0.27678611    -0.08790
C597        C  0.57578576  0.56327175  0.23938831     0.04740
C598        C  0.58708105  0.58606993  0.21364257    -0.03820
Br599      Br  0.57216249  0.58392186  0.15678144    -0.03510
H600        H  0.60659944  0.62981168  0.21151205     0.08650
H601        H  0.60613398  0.54580858  0.29609695     0.06670
Br602      Br  0.67721811  0.58480006  0.34477684    -0.03940
C603        C  0.56049884  0.58526706  0.03788229    -0.10570
C604        C  0.56461932  0.56339339  0.50953816     0.05620
C605        C  0.61121066  0.56652868  0.47636383    -0.04340
C606        C  0.64269621  0.59196978  0.46978075    -0.08790
C607        C  0.62146641  0.61558741  0.49188097     0.04740
C608        C  0.58490592  0.61180906  0.52824013    -0.03820
Br609      Br  0.55851409  0.64207147  0.06256642    -0.03510
H610        H  0.52760772  0.58295135  0.06446711     0.08650
H611        H  0.67602217  0.59389570  0.44321929     0.06670
Br612      Br  0.62076484  0.54096706  0.43233426    -0.03940
C613        C  0.90141832  0.62797978  0.02863848    -0.10570
C614        C  0.92488911  0.65395112  0.51578027     0.05620
C615        C  0.97305753  0.66886109  0.54002239    -0.04340
C616        C  0.00777254  0.65567505  0.07140842    -0.08790
C617        C  0.98785713  0.62914100  0.08334800     0.04740
C618        C  0.93033810  0.61606714  0.06335872    -0.03820
Br619      Br  0.89374811  0.58112680  0.08068569    -0.03510
H620        H  0.85951446  0.61730725  0.01231082     0.08650
H621        H  0.05380638  0.66565304  0.08438758     0.06670
Br622      Br  0.99552708  0.70707044  0.53145249    -0.03940
C623        C  0.91884311  0.61378718  0.18837607    -0.10570
C624        C  0.97848059  0.62649895  0.17004493     0.05620
C625        C  0.99822823  0.65311539  0.18370542    -0.04340
C626        C  0.96544550  0.66437805  0.21760512    -0.08790
C627        C  0.91585173  0.64934019  0.24002039     0.04740
C628        C  0.88938893  0.62443767  0.22415708    -0.03820
Br629      Br  0.81406944  0.60433186  0.25008254    -0.03510
H630        H  0.90002487  0.59414121  0.17714470     0.08650
H631        H  0.98170651  0.68469094  0.22786373     0.06670
Br632      Br  0.07472669  0.67465361  0.16203224    -0.03940
C633        C  0.39804781  0.93112257  0.46839571    -0.10570
C634        C  0.43469385  0.90883627  0.98621662     0.05620
C635        C  0.49221386  0.89668869  0.96472617    -0.04340
C636        C  0.51840039  0.90906938  0.42974605    -0.08790
C637        C  0.48600315  0.93302737  0.41415862     0.04740
C638        C  0.42198026  0.94278485  0.43242017    -0.03820
Br639      Br  0.36970040  0.97394054  0.41183308    -0.03510
H640        H  0.34980082  0.93948055  0.48248244     0.08650
H641        H  0.56678507  0.90080049  0.41592854     0.06670
Br642      Br  0.53267533  0.86203199  0.97917813    -0.03940
C643        C  0.48880523  0.90263602  0.27147412    -0.10570
C644        C  0.42980549  0.91572622  0.25373161     0.05620
C645        C  0.39438745  0.93729867  0.27475445    -0.04340
C646        C  0.42037586  0.94632713  0.31169935    -0.08790
C647        C  0.48542871  0.93588221  0.32680741     0.04740
C648        C  0.51714652  0.91266225  0.30752737    -0.03820
Br649      Br  0.59950267  0.89383710  0.32824122    -0.03510
H650        H  0.51250942  0.88446392  0.25747107     0.08650
H651        H  0.39560967  0.96431406  0.32552973     0.06670
Br652      Br  0.31480528  0.95729914  0.25187822    -0.03940
C653        C  0.08238167  0.97578462  0.18067317    -0.10570
C654        C  0.10677356  0.95894444  0.21182380     0.05620
C655        C  0.11276229  0.97013991  0.25082026    -0.04340
C656        C  0.08523461  0.99666072  0.25840993    -0.08790
C657        C  0.04546482  0.01027861  0.22873097     0.04740
C658        C  0.05189284  0.00132700  0.18875241    -0.03820
Br659      Br  0.99921219  0.01830578  0.14607447    -0.03510
H660        H  0.07741834  0.96759279  0.15064162     0.08650
H661        H  0.08341052  0.00427006  0.28894464     0.06670
Br662      Br  0.14146234  0.94863539  0.29630069    -0.03940
C663        C  0.13764192  0.97765045  0.07135405    -0.10570
C664        C  0.13919850  0.95866922  0.03961759     0.05620
C665        C  0.13781532  0.96909120  0.00022264    -0.04340
C666        C  0.11212694  0.99609175  0.99429587    -0.08790
C667        C  0.08445449  0.01115964  0.02718350     0.04740
C668        C  0.11463080  0.00468999  0.06440924    -0.03820
Br669      Br  0.15284182  0.03336812  0.09719048    -0.03510
H670        H  0.15667584  0.97162898  0.10064145     0.08650
H671        H  0.10018399  0.00237146  0.96407741     0.06670
Br672      Br  0.15902540  0.94684768  0.95386506    -0.03940
C673        C  0.66240093  0.95826990  0.28009781    -0.10570
C674        C  0.61078444  0.95548530  0.24915815     0.05620
C675        C  0.54931482  0.97253507  0.25202827    -0.04340
C676        C  0.53264970  0.98501534  0.28962558    -0.08790
C677        C  0.57036759  0.97630744  0.32462650     0.04740
C678        C  0.64311390  0.97066654  0.31684154    -0.03820
Br679      Br  0.71486646  0.98998768  0.34659350    -0.03510
H680        H  0.71688512  0.95053044  0.27597435     0.08650
H681        H  0.48127255  0.99553190  0.29289168     0.06670
Br682      Br  0.48603621  0.97727828  0.20726495    -0.03940
C683        C  0.66774046  0.94970878  0.47051166    -0.10570
C684        C  0.61512753  0.95172490  0.00111659     0.05620
C685        C  0.55721734  0.96988267  0.99408751    -0.04340
C686        C  0.54672714  0.98014262  0.45473076    -0.08790
C687        C  0.58226344  0.96720773  0.42150976     0.04740
C688        C  0.64855948  0.95398243  0.43057908    -0.03820
Br689      Br  0.70131400  0.93092450  0.39366384    -0.03510
H690        H  0.71739055  0.93840991  0.47591838     0.08650
H691        H  0.49929990  0.99265138  0.44936560     0.06670
Br692      Br  0.48882476  0.97881911  0.03528926    -0.03940
C693        C  0.86245207  0.96817822  0.05914667    -0.10570
C694        C  0.89070157  0.94480107  0.03990219     0.05620
C695        C  0.93978688  0.94839242  0.00875919    -0.04340
C696        C  0.96368953  0.97492864  0.99964059    -0.08790
C697        C  0.95013794  0.99768423  0.02555625     0.04740
C698        C  0.89309720  0.99437199  0.05377397    -0.03820
Br699      Br  0.85083839  0.02311830  0.08588179    -0.03510
H700        H  0.81706525  0.96587749  0.07882333     0.08650
H701        H  0.99644819  0.97709510  0.97320099     0.06670
Br702      Br  0.97874774  0.91725406  0.97998007    -0.03940
C703        C  0.87587064  0.99523667  0.20635784    -0.10570
C704        C  0.91667192  0.00085109  0.24081671     0.05620
C705        C  0.92239308  0.97974535  0.26983129    -0.04340
C706        C  0.90678230  0.95237649  0.25951998    -0.08790
C707        C  0.87894956  0.94605821  0.22168533     0.04740
C708        C  0.85508903  0.96800772  0.19752441    -0.03820
Br709      Br  0.78674356  0.96161639  0.15602650    -0.03510
H710        H  0.86324226  0.01160432  0.18550905     0.08650
H711        H  0.91676705  0.93606157  0.28094575     0.06670
Br712      Br  0.95203359  0.98755102  0.32374283    -0.03940
N713        N  0.79142891  0.81867400  0.70631165    -0.07540
N714        N  0.82855416  0.80918605  0.73745465    -0.59660
N715        N  0.85126195  0.88035953  0.67652114    -0.07220
N716        N  0.88856727  0.90366879  0.67716688    -0.61780
N717        N  0.80682678  0.88000945  0.70711710    -0.06810
N718        N  0.81321742  0.90236641  0.72944639    -0.59630
N719        N  0.82962470  0.81475326  0.67352512    -0.06490
N720        N  0.88668409  0.79965507  0.68100793    -0.62140
C721        C  0.88854874  0.79728050  0.72097653     0.94640
C722        C  0.86455679  0.91693601  0.71082383     0.94420
N723        N  0.80596009  0.88047792  0.55275290    -0.07720
N724        N  0.81318493  0.90344168  0.53200346    -0.60230
N725        N  0.83181872  0.81476459  0.58336524    -0.05840
N726        N  0.88865821  0.79959343  0.57498977    -0.61490
N727        N  0.79269239  0.81829320  0.55107622    -0.07750
N728        N  0.82842070  0.80838176  0.51940453    -0.60500
N729        N  0.85124855  0.87990106  0.58285561    -0.05480
N730        N  0.89056369  0.90260785  0.58323661    -0.61570
Mn731      Mn  0.84174548  0.84753781  0.62906475     1.18440
C732        C  0.86624594  0.91693092  0.55116521     0.96720
C733        C  0.88905669  0.79666941  0.53490133     0.97390
N734        N  0.65002622  0.89080731  0.70574585    -0.07770
N735        N  0.66061230  0.91021836  0.73246535    -0.64080
N736        N  0.56529767  0.83601849  0.67726665    -0.06570
N737        N  0.50498601  0.82321361  0.68572584    -0.64750
N738        N  0.61424273  0.82947654  0.70441472    -0.07280
N739        N  0.58679089  0.81252866  0.73179192    -0.64340
N740        N  0.60398529  0.89883347  0.67807610    -0.06170
N741        N  0.58079703  0.92435484  0.68724155    -0.65030
Mn742      Mn  0.71448354  0.85354770  0.70649450     1.10660
C743        C  0.61850051  0.93124118  0.72123131     0.97940
C744        C  0.51814838  0.80826990  0.71932668     0.98020
N745        N  0.61489972  0.82723475  0.55305743    -0.07290
N746        N  0.58855318  0.80947624  0.52612491    -0.62660
N747        N  0.60198630  0.89798436  0.57692479    -0.06600
N748        N  0.57869002  0.92312581  0.56558813    -0.59390
N749        N  0.64826656  0.88875658  0.55005070    -0.07910
N750        N  0.65861344  0.90665827  0.52169359    -0.62230
N751        N  0.56479731  0.83436198  0.57958394    -0.06900
N752        N  0.50473814  0.82119651  0.57100637    -0.59410
Mn753      Mn  0.71459241  0.85251586  0.55125949     1.20190
Mn754      Mn  0.57988793  0.86775217  0.62801626     1.10090
Cl755      Cl  0.71055679  0.85441426  0.62873460    -0.87380
C756        C  0.51904979  0.80541996  0.53788340     0.94950
C757        C  0.61678326  0.92828653  0.53087969     0.94750
C758        C  0.96084180  0.79467374  0.74147775    -0.00850
C759        C  0.96725887  0.78419511  0.77922936    -0.00850
N760        N  0.12178006  0.82434462  0.54999073    -0.07540
N761        N  0.09130788  0.80931557  0.52139207    -0.59660
N762        N  0.11049150  0.89187906  0.57825157    -0.07220
N763        N  0.09649950  0.91865450  0.57951087    -0.61780
N764        N  0.15540222  0.88633700  0.54868021    -0.06810
N765        N  0.17254277  0.90905405  0.52923062    -0.59630
N766        N  0.07578610  0.82932758  0.57910971    -0.06490
N767        N  0.01467631  0.81735737  0.57147114    -0.62140
C768        C  0.02399381  0.80464115  0.53580371     0.94640
C769        C  0.13527329  0.92899601  0.54861398     0.94420
N770        N  0.15078467  0.88844270  0.70024213    -0.07720
N771        N  0.15917768  0.91153420  0.72089886    -0.60230
N772        N  0.07426048  0.83014539  0.67310752    -0.05840
N773        N  0.01353130  0.81793107  0.68163947    -0.61490
N774        N  0.12054847  0.82624309  0.70230802    -0.07750
N775        N  0.09073974  0.81166998  0.73163456    -0.60500
N776        N  0.10460310  0.89207523  0.67112049    -0.05480
N777        N  0.07971654  0.91752069  0.67142731    -0.61570
Mn778      Mn  0.08874010  0.86093772  0.62519186     1.18440
C779        C  0.11402449  0.92941110  0.70263584     0.96720
C780        C  0.02348919  0.80611070  0.71784795     0.97390
N781        N  0.31208393  0.87354189  0.54613540    -0.07770
N782        N  0.32855259  0.88733041  0.51383859    -0.64080
N783        N  0.33197562  0.80929447  0.58268950    -0.06570
N784        N  0.38719762  0.79315879  0.57538889    -0.64750
N785        N  0.29358528  0.81319530  0.55013652    -0.07280
N786        N  0.32899542  0.80258994  0.51913781    -0.64340
N787        N  0.36581647  0.87216738  0.57159414    -0.06170
N788        N  0.42255574  0.88487956  0.55530162    -0.65030
Mn789      Mn  0.21946028  0.84866398  0.54808871     1.10660
C790        C  0.39688695  0.89454755  0.51937406     0.97940
C791        C  0.38800918  0.79041796  0.53557130     0.98020
N792        N  0.29472314  0.81671543  0.70325996    -0.07290
N793        N  0.32839103  0.80670442  0.73513612    -0.62660
N794        N  0.36245191  0.87511070  0.67349277    -0.06600
N795        N  0.41795063  0.88966016  0.68720169    -0.59390
N796        N  0.30881518  0.87743599  0.69921562    -0.07910
N797        N  0.32398466  0.89389332  0.72893988    -0.62230
N798        N  0.33411075  0.81172576  0.67119015    -0.06900
N799        N  0.38852103  0.79552920  0.67982879    -0.59410
Mn800      Mn  0.21802658  0.85155804  0.70208143     1.20190
Mn801      Mn  0.35070267  0.84273867  0.62472707     1.10090
Cl802      Cl  0.21934276  0.85077704  0.62511641    -0.87380
C803        C  0.38758041  0.79361181  0.71986265     0.94950
C804        C  0.39114980  0.90178009  0.72136587     0.94750
C805        C  0.96068470  0.79377435  0.51295083    -0.00850
C806        C  0.96642005  0.78444849  0.97433624    -0.00850
N807        N  0.79890649  0.75554413  0.95221792    -0.07540
N808        N  0.85976410  0.75512552  0.97215878    -0.59660
N809        N  0.62880098  0.76961457  0.92457113    -0.07220
N810        N  0.56724685  0.78343348  0.92896693    -0.61780
N811        N  0.63292726  0.74983975  0.95152808    -0.06810
N812        N  0.57582665  0.75014307  0.97513273    -0.59630
N813        N  0.80000086  0.77447732  0.92413669    -0.06490
N814        N  0.86252896  0.78774640  0.92518650    -0.62140
C815        C  0.89928335  0.77499044  0.95518872     0.94640
C816        C  0.53540855  0.77111309  0.96085730     0.94420
N817        N  0.63234595  0.74926844  0.80395175    -0.07720
N818        N  0.57576315  0.75003214  0.78000150    -0.60230
N819        N  0.80068701  0.77388668  0.83040609    -0.05840
N820        N  0.86283972  0.78740951  0.82876210    -0.61490
N821        N  0.80011504  0.75442600  0.80279117    -0.07750
N822        N  0.86113081  0.75397036  0.78253250    -0.60500
N823        N  0.62907517  0.76954235  0.83043208    -0.05480
N824        N  0.56898414  0.78414791  0.82540206    -0.61570
Mn825      Mn  0.71447200  0.77385017  0.87740660     1.18440
C826        C  0.53674311  0.77189139  0.79353180     0.96720
C827        C  0.90025251  0.77433677  0.79891953     0.97390
N828        N  0.66085496  0.68309213  0.95565456    -0.07770
N829        N  0.63809166  0.66820548  0.98672651    -0.64080
N830        N  0.83001076  0.67542754  0.92927503    -0.06570
N831        N  0.87378282  0.65678139  0.94554455    -0.64750
N832        N  0.81739202  0.69516973  0.95561319    -0.07280
N833        N  0.85345635  0.69133531  0.98874380    -0.64340
N834        N  0.66925647  0.66676251  0.92443236    -0.06170
N835        N  0.64816766  0.64179891  0.93227666    -0.65030
Mn836      Mn  0.72501270  0.72150952  0.95448421     1.10660
C837        C  0.62995993  0.64234490  0.97100425     0.97940
C838        C  0.88913761  0.66772254  0.98225066     0.98020
N839        N  0.81671735  0.69349481  0.80145494    -0.07290
N840        N  0.85044459  0.68829303  0.76772166    -0.62660
N841        N  0.66720017  0.66659706  0.83596361    -0.06600
N842        N  0.64564537  0.64147356  0.82960593    -0.59390
N843        N  0.66033292  0.68182985  0.80368439    -0.07910
N844        N  0.63904911  0.66574313  0.77349680    -0.62230
N845        N  0.82804570  0.67396611  0.82803128    -0.06900
N846        N  0.86807930  0.65410544  0.81131442    -0.59410
Mn847      Mn  0.72491677  0.72030168  0.80217835     1.20190
Mn848      Mn  0.75079929  0.67110605  0.87936510     1.10090
Cl849      Cl  0.72760683  0.72179635  0.87829631    -0.87380
C850        C  0.88222798  0.66389890  0.77392065     0.94950
C851        C  0.63011975  0.64050937  0.79084651     0.94750
N852        N  0.13249346  0.74873272  0.80008189    -0.07540
N853        N  0.07422637  0.75177209  0.77759014    -0.59660
N854        N  0.30365233  0.76442830  0.83000218    -0.07220
N855        N  0.36358634  0.77906483  0.82724128    -0.61780
N856        N  0.30264906  0.74516803  0.80199981    -0.06810
N857        N  0.36160376  0.74644313  0.77964554    -0.59630
N858        N  0.13291785  0.76768677  0.82870519    -0.06490
N859        N  0.07462854  0.78367619  0.82624264    -0.62140
C860        C  0.03866413  0.77369281  0.79401477     0.94640
C861        C  0.39961566  0.76746026  0.79593355     0.94420
N862        N  0.30090880  0.74401487  0.95044321    -0.07720
N863        N  0.35935059  0.74503196  0.97319863    -0.60230
N864        N  0.13150706  0.76760242  0.92324188    -0.05840
N865        N  0.07381045  0.78392269  0.92649423    -0.61490
N866        N  0.13015407  0.74831928  0.95100981    -0.07750
N867        N  0.07196696  0.75144177  0.97374748    -0.60500
N868        N  0.30282443  0.76373347  0.92333402    -0.05480
N869        N  0.36285754  0.77828829  0.92709716    -0.61570
Mn870      Mn  0.21750839  0.76732495  0.87634026     1.18440
C871        C  0.39815927  0.76633207  0.95813209     0.96720
C872        C  0.03719963  0.77369834  0.95837205     0.97390
N873        N  0.29319744  0.67929391  0.80013537    -0.07770
N874        N  0.33665969  0.66724526  0.77318850    -0.64080
N875        N  0.12409359  0.66410324  0.82520860    -0.06570
N876        N  0.10298967  0.63986524  0.81119815    -0.64750
N877        N  0.13101740  0.68196788  0.79568273    -0.07280
N878        N  0.11476094  0.66969475  0.76152534    -0.64340
N879        N  0.28553296  0.66285997  0.83087758    -0.06170
N880        N  0.32375571  0.64042225  0.82659631    -0.65030
Mn881      Mn  0.21483240  0.71444401  0.79808670     1.10660
C882        C  0.35541043  0.64275382  0.79075329     0.97940
C883        C  0.09783375  0.64347504  0.77143467     0.98020
N884        N  0.12439954  0.68193714  0.95051387    -0.07290
N885        N  0.10733291  0.66974486  0.98428495    -0.62660
N886        N  0.27988932  0.66095479  0.91962696    -0.06600
N887        N  0.31507665  0.63780566  0.92415729    -0.59390
N888        N  0.28610813  0.67708489  0.95105706    -0.07910
N889        N  0.32573125  0.66420136  0.97875438    -0.62230
N890        N  0.12054196  0.66369365  0.92097792    -0.06900
N891        N  0.10241650  0.63917107  0.93507018    -0.59410
Mn892      Mn  0.21067796  0.71350595  0.95199751     1.20190
Mn893      Mn  0.20081301  0.66434227  0.87404507     1.10090
Cl894      Cl  0.20955347  0.71533091  0.87516230    -0.87380
C895        C  0.09483451  0.64308969  0.97472190     0.94950
C896        C  0.34456524  0.63981063  0.96043047     0.94750
C897        C  0.45855568  0.79262346  0.74086987    -0.00850
C898        C  0.46508543  0.77956428  0.77689304    -0.00850
C899        C  0.46419162  0.77822343  0.97791831    -0.00850
C900        C  0.45916160  0.78986631  0.51525793    -0.00850
C901        C  0.53321472  0.95291364  0.89207670    -0.00850
C902        C  0.53075337  0.95540805  0.85073735    -0.00850
C903        C  0.03151026  0.60873127  0.64714487    -0.00850
C904        C  0.04074623  0.61258645  0.60692550    -0.00850
C905        C  0.50003721  0.54512232  0.50725261    -0.00850
C906        C  0.50263764  0.51710124  0.50183620    -0.00850
C907        C  0.50730671  0.54756553  0.73721709    -0.00850
C908        C  0.50334570  0.51984816  0.74428564    -0.00850
N909        N  0.26725580  0.40265032  0.57573996    -0.07540
N910        N  0.29687252  0.42665453  0.56976868    -0.59660
N911        N  0.12885838  0.36998758  0.54646128    -0.07220
N912        N  0.09567605  0.37424782  0.51249011    -0.61780
N913        N  0.11240835  0.38934734  0.57291361    -0.06810
N914        N  0.06985289  0.40805598  0.55603029    -0.59630
N915        N  0.28711887  0.38451921  0.54837566    -0.06490
N916        N  0.33115891  0.39654974  0.52216051    -0.62140
C917        C  0.33646849  0.42289624  0.53666216     0.94640
C918        C  0.05928365  0.39785365  0.51859863     0.94420
N919        N  0.15278487  0.29108040  0.57846818    -0.07720
N920        N  0.09201348  0.27649232  0.57554505    -0.60230
N921        N  0.32171662  0.31818515  0.55196412    -0.05840
N922        N  0.37902243  0.31854595  0.52833068    -0.61490
N923        N  0.32734262  0.29850952  0.57901270    -0.07750
N924        N  0.39041512  0.28546069  0.57436029    -0.60500
N925        N  0.15535620  0.30894079  0.54886012    -0.05480
N926        N  0.09815800  0.30689023  0.52569909    -0.61570
Mn927      Mn  0.22565891  0.34489558  0.54825183     1.18440
C928        C  0.05873967  0.28662241  0.54202254     0.96720
C929        C  0.42222745  0.29829150  0.54257867     0.97390
N930        N  0.11549939  0.39164517  0.67320643    -0.07770
N931        N  0.07113327  0.41053820  0.68849530    -0.64080
N932        N  0.28992941  0.38824636  0.69496186    -0.06570
N933        N  0.32920694  0.40303409  0.72059477    -0.64750
N934        N  0.27053835  0.40419319  0.66499684    -0.07280
N935        N  0.29701295  0.42892349  0.66836277    -0.64340
N936        N  0.13360597  0.37394016  0.70135697    -0.06170
N937        N  0.10045408  0.37952287  0.73513503    -0.65030
Mn938      Mn  0.18899048  0.39651637  0.62183330     1.10660
C939        C  0.06150296  0.40204003  0.72679786     0.97940
C940        C  0.33337938  0.42836076  0.70268621     0.98020
N941        N  0.32679743  0.29954850  0.67371138    -0.07290
N942        N  0.38606128  0.28462511  0.68040931    -0.62660
N943        N  0.15678819  0.31276202  0.70425345    -0.06600
N944        N  0.09985479  0.31202276  0.72812461    -0.59390
N945        N  0.15311551  0.29355897  0.67618589    -0.07910
N946        N  0.09193208  0.27942631  0.68094494    -0.62230
N947        N  0.32366161  0.32044843  0.69919027    -0.06900
N948        N  0.37905395  0.31968118  0.72411629    -0.59410
Mn949      Mn  0.23957908  0.29381837  0.62680015     1.20190
Mn950      Mn  0.22880316  0.34848330  0.70065281     1.10090
Cl951      Cl  0.22132411  0.34585075  0.62442072    -0.87380
C952        C  0.41818832  0.29739630  0.71205415     0.94950
C953        C  0.05937851  0.29124945  0.71385121     0.94750
N954        N  0.65424879  0.29713025  0.57897125    -0.07540
N955        N  0.59180321  0.28407123  0.57380142    -0.59660
N956        N  0.82939526  0.31528042  0.55573657    -0.07220
N957        N  0.88564003  0.31255143  0.53165263    -0.61780
N958        N  0.82755698  0.29517301  0.58216000    -0.06810
N959        N  0.88427582  0.27850385  0.57660736    -0.59630
N960        N  0.66167416  0.31606357  0.55089372    -0.06490
N961        N  0.60582703  0.31603037  0.52640415    -0.62140
C962        C  0.56239558  0.29604399  0.54058028     0.94640
C963        C  0.91992715  0.28968819  0.54480386     0.94420
N964        N  0.81194383  0.40119731  0.58512299    -0.07720
N965        N  0.82966560  0.42558203  0.57062813    -0.60230
N966        N  0.66585790  0.38107101  0.54757461    -0.05840
N967        N  0.65208861  0.39598025  0.51508633    -0.61490
N968        N  0.65004997  0.39556388  0.57976751    -0.07750
N969        N  0.62176247  0.41936485  0.56994866    -0.60500
N970        N  0.82562664  0.38152554  0.55859239    -0.05480
N971        N  0.85533519  0.39250103  0.52665755    -0.61570
Mn972      Mn  0.74682224  0.34784618  0.55263871     1.18440
C973        C  0.85623264  0.42003972  0.53389528     0.96720
C974        C  0.62422737  0.41992475  0.52988321     0.97390
N975        N  0.82401237  0.29705585  0.67723368    -0.07770
N976        N  0.88423674  0.28218006  0.68165201    -0.64080
N977        N  0.65397300  0.31603518  0.70433472    -0.06570
N978        N  0.59723001  0.31558286  0.72814464    -0.64750
N979        N  0.65006731  0.29681350  0.67635302    -0.07280
N980        N  0.58876734  0.28288950  0.68098242    -0.64340
N981        N  0.82190715  0.31710938  0.70430445    -0.06170
N982        N  0.87923814  0.31568942  0.72773920    -0.65030
Mn983      Mn  0.73822810  0.29455708  0.62876604     1.10660
C984        C  0.91845047  0.29407766  0.71335566     0.97940
C985        C  0.55673291  0.29496247  0.71370877     0.98020
N986        N  0.63615917  0.39392970  0.67024145    -0.07290
N987        N  0.59889552  0.41650429  0.67694520    -0.62660
N988        N  0.80401243  0.38485680  0.70738157    -0.06600
N989        N  0.81840989  0.39751553  0.74150497    -0.59390
N990        N  0.79839922  0.40337672  0.67873735    -0.07910
N991        N  0.81056849  0.42849771  0.69303151    -0.62230
N992        N  0.64573615  0.38016963  0.70363280    -0.06900
N993        N  0.61937243  0.39482088  0.73407217    -0.59410
Mn994      Mn  0.72455511  0.39731056  0.62852853     1.20190
Mn995      Mn  0.73325982  0.34882633  0.70564029     1.10090
Cl996      Cl  0.73786630  0.34658008  0.62900970    -0.87380
C997        C  0.59101063  0.41777719  0.71685897     0.94950
C998        C  0.82315068  0.42455641  0.73227443     0.94750
C999        C  0.48605372  0.28785730  0.73282665    -0.00850
C1000       C  0.48475617  0.28065645  0.77293908    -0.00850
C1001       C  0.48820511  0.28243993  0.98114434    -0.00850
C1002       C  0.49081025  0.28949475  0.52140335    -0.00850
N1003       N  0.64934942  0.24657317  0.80063856    -0.07540
N1004       N  0.59218833  0.24859353  0.77714558    -0.59660
N1005       N  0.82215359  0.26505401  0.82927919    -0.07220
N1006       N  0.88282254  0.27940497  0.82502699    -0.61780
N1007       N  0.81817088  0.24642177  0.80048999    -0.06810
N1008       N  0.87451397  0.24778998  0.77631664    -0.59630
N1009       N  0.64767667  0.26587150  0.82874981    -0.06490
N1010       N  0.58789244  0.28112482  0.82478086    -0.62140
C1011       C  0.55364032  0.27011035  0.79229722     0.94640
C1012       C  0.91468159  0.26838691  0.79153877     0.94420
N1013       N  0.81460889  0.24284739  0.95331521    -0.07720
N1014       N  0.87024358  0.24332266  0.97805961    -0.60230
N1015       N  0.64739321  0.26511655  0.92405721    -0.05840
N1016       N  0.59090190  0.28187460  0.92952237    -0.61490
N1017       N  0.64593717  0.24498183  0.95052778    -0.07750
N1018       N  0.58956945  0.24798704  0.97457138    -0.60500
N1019       N  0.82001116  0.26260423  0.92627685    -0.05480
N1020       N  0.88082060  0.27657313  0.93231591    -0.61570
Mn1021     Mn  0.73477987  0.26634300  0.87715094     1.18440
C1022       C  0.91143244  0.26441512  0.96503878     0.96720
C1023       C  0.55515642  0.27088778  0.96128973     0.97390
N1024       N  0.81877537  0.18171047  0.79849913    -0.07770
N1025       N  0.84790756  0.16900266  0.76706556    -0.64080
N1026       N  0.65920759  0.16128670  0.82444524    -0.06570
N1027       N  0.63997843  0.13698225  0.81006292    -0.64750
N1028       N  0.65825750  0.18007736  0.79599735    -0.07280
N1029       N  0.63914846  0.16839142  0.76186610    -0.64340
N1030       N  0.82235095  0.16540332  0.82974832    -0.06170
N1031       N  0.85646358  0.14248982  0.82083963    -0.65030
Mn1032     Mn  0.73532658  0.21439184  0.79821379     1.10660
C1033       C  0.87050746  0.14427784  0.78157863     0.97940
C1034       C  0.62784088  0.14159807  0.77103031     0.98020
N1035       N  0.64726106  0.17776399  0.94741342    -0.07290
N1036       N  0.62392716  0.16548214  0.98001657    -0.62660
N1037       N  0.81491305  0.16143243  0.91961356    -0.06600
N1038       N  0.84229996  0.13702951  0.92726383    -0.59390
N1039       N  0.80756119  0.17618754  0.95253000    -0.07910
N1040       N  0.82758856  0.16089796  0.98366870    -0.62230
N1041       N  0.65336906  0.15918728  0.91848311    -0.06900
N1042       N  0.63568219  0.13438681  0.93172251    -0.59410
Mn1043     Mn  0.72825938  0.21119213  0.95172058     1.20190
Mn1044     Mn  0.73672695  0.16310560  0.87294795     1.10090
Cl1045     Cl  0.73289223  0.21396763  0.87513819    -0.87380
C1046       C  0.61716241  0.13844468  0.97030974     0.94950
C1047       C  0.84873894  0.13635319  0.96703147     0.94750
N1048       N  0.31823193  0.25426209  0.95550542    -0.07540
N1049       N  0.37552730  0.25535027  0.97863488    -0.59660
N1050       N  0.14636150  0.26544599  0.92629794    -0.07220
N1051       N  0.08251660  0.27785439  0.93131873    -0.61780
N1052       N  0.15270286  0.24531161  0.95252202    -0.06810
N1053       N  0.09536422  0.24388317  0.97589023    -0.59630
N1054       N  0.32157361  0.27255271  0.92654078    -0.06490
N1055       N  0.38333131  0.28650562  0.92986483    -0.62140
C1056       C  0.41612694  0.27541812  0.96294542     0.94640
C1057       C  0.05128055  0.26401662  0.96240889     0.94420
N1058       N  0.14908519  0.24531337  0.80573864    -0.07720
N1059       N  0.09326960  0.24573931  0.78123790    -0.60230
N1060       N  0.31946313  0.27136930  0.82908137    -0.05840
N1061       N  0.38102657  0.28526163  0.82482130    -0.61490
N1062       N  0.31538978  0.25243908  0.80064043    -0.07750
N1063       N  0.37239737  0.25312785  0.77693710    -0.60500
N1064       N  0.14570740  0.26595405  0.83158248    -0.05480
N1065       N  0.08554389  0.28050411  0.82540240    -0.61570
Mn1066     Mn  0.23385670  0.27087703  0.87846159     1.18440
C1067       C  0.05343450  0.26760265  0.79375637     0.96720
C1068       C  0.41323759  0.27356644  0.79179891     0.97390
N1069       N  0.18634810  0.18004383  0.95436487    -0.07770
N1070       N  0.14858944  0.16750161  0.98282647    -0.64080
N1071       N  0.35880969  0.17414060  0.92865585    -0.06570
N1072       N  0.40284208  0.15576644  0.94520444    -0.64750
N1073       N  0.34366205  0.19361523  0.95519294    -0.07280
N1074       N  0.37888331  0.18983138  0.98862968    -0.64340
N1075       N  0.20267861  0.16229963  0.92585615    -0.06170
N1076       N  0.17553801  0.13812664  0.93307504    -0.65030
Mn1077     Mn  0.24787574  0.21878594  0.95489205     1.10660
C1078       C  0.14188424  0.14131993  0.96828493     0.97940
C1079       C  0.41599431  0.16653409  0.98217482     0.98020
N1080       N  0.33609232  0.19083034  0.80032241    -0.07290
N1081       N  0.36766412  0.18560053  0.76590760    -0.62660
N1082       N  0.19528612  0.16147222  0.83682265    -0.06600
N1083       N  0.15935287  0.13839061  0.83394710    -0.59390
N1084       N  0.17726590  0.17886551  0.80835552    -0.07910
N1085       N  0.12982548  0.16705087  0.78411300    -0.62230
N1086       N  0.35293845  0.17209421  0.82727643    -0.06900
N1087       N  0.39436205  0.15279877  0.81038818    -0.59410
Mn1088     Mn  0.24218462  0.21721680  0.80312296     1.20190
Mn1089     Mn  0.28034196  0.16763311  0.87948214     1.10090
Cl1090     Cl  0.25098231  0.21879346  0.87886944    -0.87380
C1091       C  0.40358503  0.16204534  0.77235298     0.94950
C1092       C  0.11826855  0.14204900  0.80150990     0.94750
C1093       C  0.98749512  0.28404723  0.73289131    -0.00850
C1094       C  0.98538980  0.27654136  0.77289065    -0.00850
C1095       C  0.98658209  0.27861830  0.52449932    -0.00850
C1096       C  0.98283108  0.27173950  0.98415795    -0.00850
C1097       C  0.91687976  0.45875491  0.85388695    -0.00850
C1098       C  0.91384105  0.45003707  0.89277990    -0.00850
C1099       C  0.56150412  0.10945139  0.60619621    -0.00850
C1100       C  0.55352699  0.10600558  0.64669002    -0.00850
C1101       C  0.00644743  0.02045497  0.52646645    -0.00850
C1102       C  0.99187742  0.04822353  0.52692357    -0.00850
C1103       C  0.97483388  0.02221650  0.73987917    -0.00850
C1104       C  0.96658368  0.04996652  0.73880379    -0.00850
C1105       C  0.09770490  0.10896811  0.74639946    -0.10570
C1106       C  0.07914798  0.11864381  0.78457896     0.05620
C1107       C  0.03612588  0.10218591  0.80964291    -0.04340
C1108       C  0.01015831  0.07697614  0.79575728    -0.08790
C1109       C  0.02333063  0.06818337  0.75624824     0.04740
C1110       C  0.07035576  0.08397701  0.73208896    -0.03820
Br1111     Br  0.09731849  0.07374005  0.67892653    -0.03510
H1112       H  0.13426431  0.12073953  0.72781294     0.08650
H1113       H  0.97323308  0.06553215  0.81457119     0.06670
Br1114     Br  0.00547221  0.11449022  0.86178715    -0.03940
C1115       C  0.08804887  0.09625877  0.96009962    -0.10570
C1116       C  0.10825583  0.11723939  0.98686099     0.05620
C1117       C  0.10428407  0.11239455  0.02831927    -0.04340
C1118       C  0.07585403  0.08723860  0.54169509    -0.08790
C1119       C  0.04890377  0.06771668  0.01452890     0.04740
C1120       C  0.05889371  0.07185534  0.97322978    -0.03820
Br1121     Br  0.02717219  0.04669854  0.93218623    -0.03510
H1122       H  0.09378992  0.09890471  0.92809589     0.08650
H1123       H  0.07126384  0.08377286  0.57353745     0.06670
Br1124     Br  0.13648857  0.13855313  0.56730938    -0.03940
C1125       C  0.53128998  0.15290456  0.57158990    -0.10570
C1126       C  0.50931951  0.12657771  0.58323536     0.05620
C1127       C  0.45102583  0.11420065  0.56306324    -0.04340
C1128       C  0.42357540  0.12657882  0.02832151    -0.08790
C1129       C  0.44928864  0.15235632  0.01591007     0.04740
C1130       C  0.49773532  0.16664140  0.54052561    -0.03820
Br1131     Br  0.52226948  0.20466270  0.53291315    -0.03510
H1132       H  0.57857583  0.16217003  0.58414900     0.08650
H1133       H  0.38128296  0.11642213  0.01161192     0.06670
Br1134     Br  0.41185679  0.07958506  0.58000505    -0.03940
C1135       C  0.48804602  0.16207829  0.71687241    -0.10570
C1136       C  0.43739798  0.14738558  0.73879986     0.05620
C1137       C  0.41031044  0.12257862  0.72295588    -0.04340
C1138       C  0.44086081  0.11145485  0.68777600    -0.08790
C1139       C  0.50089704  0.12397490  0.66959477     0.04740
C1140       C  0.52059240  0.15069883  0.68304617    -0.03820
Br1141     Br  0.59465875  0.17295509  0.66055110    -0.03510
H1142       H  0.50440739  0.18238676  0.72711247     0.08650
H1143       H  0.42183271  0.09181376  0.67661030     0.06670
Br1144     Br  0.33172321  0.10359103  0.74786517    -0.03940
C1145       C  0.87992579  0.11027622  0.02876064    -0.10570
C1146       C  0.86085677  0.10985996  0.98840018     0.05620
C1147       C  0.85590447  0.08365085  0.96883179    -0.04340
C1148       C  0.88398042  0.05998543  0.98729415    -0.08790
C1149       C  0.91942327  0.06210658  0.02402922     0.04740
C1150       C  0.90675334  0.08622628  0.54673687    -0.03820
Br1151     Br  0.93294175  0.08888250  0.60149666    -0.03510
H1152       H  0.87824840  0.12928895  0.54556812     0.08650
H1153       H  0.88729171  0.04087553  0.97036725     0.06670
Br1154     Br  0.81535822  0.07795120  0.91643105    -0.03940
C1155       C  0.83522500  0.09547842  0.77522067    -0.10570
C1156       C  0.87045933  0.11836180  0.75822928     0.05620
C1157       C  0.90401188  0.11499886  0.72083310    -0.04340
C1158       C  0.91144770  0.08823703  0.70512364    -0.08790
C1159       C  0.89870192  0.06519879  0.72975429     0.04740
C1160       C  0.84868835  0.06891511  0.76098566    -0.03820
Br1161     Br  0.80967765  0.03916658  0.79098902    -0.03510
H1162       H  0.80181200  0.09784691  0.80176533     0.08650
H1163       H  0.94730908  0.08563071  0.68003246     0.06670
Br1164     Br  0.95002275  0.14501254  0.69375485    -0.03940
C1165       C  0.58410894  0.09645219  0.74362236    -0.10570
C1166       C  0.63042668  0.11921489  0.74090752     0.05620
C1167       C  0.67922502  0.11986048  0.70824964    -0.04340
C1168       C  0.67062827  0.10092012  0.67683140    -0.08790
C1169       C  0.60344477  0.08879800  0.67238369     0.04740
C1170       C  0.57441701  0.07975981  0.70934869    -0.03820
Br1171     Br  0.50898023  0.04959699  0.71125093    -0.03510
H1172       H  0.55199983  0.09305452  0.77031017     0.08650
H1173       H  0.70940327  0.09929571  0.65297958     0.06670
Br1174     Br  0.75085344  0.14757696  0.70235376    -0.03940
C1175       C  0.68339466  0.12522549  0.52985209    -0.10570
C1176       C  0.63264579  0.11758040  0.00142368     0.05620
C1177       C  0.59305889  0.09344822  0.00838391    -0.04340
C1178       C  0.59373737  0.08197486  0.54737235    -0.08790
C1179       C  0.62054462  0.09804354  0.57970897     0.04740
C1180       C  0.67699414  0.11647428  0.56915521    -0.03820
Br1181     Br  0.72911531  0.14015587  0.60417377    -0.03510
H1182       H  0.71957372  0.14205348  0.52336429     0.08650
H1183       H  0.55714637  0.06523131  0.55365653     0.06670
Br1184     Br  0.53081151  0.07838336  0.96835212    -0.03940
C1185       C  0.87662586  0.47441497  0.95405055    -0.10570
C1186       C  0.85535363  0.45714092  0.92185030     0.05620
C1187       C  0.80595464  0.43589692  0.93102487    -0.04340
C1188       C  0.79730338  0.42779959  0.97027978    -0.08790
C1189       C  0.84114174  0.43862440  0.50015617     0.04740
C1190       C  0.87427063  0.46414303  0.99352410    -0.03820
Br1191     Br  0.92439669  0.48300721  0.53543067    -0.03510
H1192       H  0.91042471  0.49208574  0.94804714     0.08650
H1193       H  0.76608676  0.40945101  0.47606937     0.06670
Br1194     Br  0.76996553  0.40905567  0.89438680    -0.03940
C1195       C  0.86217060  0.47063850  0.76027723    -0.10570
C1196       C  0.81968506  0.44673527  0.76304416     0.05620
C1197       C  0.77780046  0.44345744  0.79819225    -0.04340
C1198       C  0.79184139  0.46008498  0.83171206    -0.08790
C1199       C  0.85686514  0.47434107  0.83294819     0.04740
C1200       C  0.87554513  0.48595515  0.79560636    -0.03820
Br1201     Br  0.92670321  0.51987325  0.79414216    -0.03510
H1202       H  0.88800433  0.47622133  0.73233414     0.08650
H1203       H  0.75971752  0.45823139  0.85847221     0.06670
Br1204     Br  0.70725226  0.41529482  0.80348846    -0.03940
C1205       C  0.05386259  0.44238222  0.77266861    -0.10570
C1206       C  0.02562643  0.41723528  0.75881029     0.05620
C1207       C  0.97341132  0.40370582  0.78162477    -0.04340
C1208       C  0.93945850  0.41777511  0.81252863    -0.08790
C1209       C  0.96521731  0.44313554  0.82625352     0.04740
C1210       C  0.02618629  0.45468903  0.80772927    -0.03820
Br1211     Br  0.07542248  0.48552991  0.83077898    -0.03510
H1212       H  0.09986754  0.45145919  0.75772188     0.08650
H1213       H  0.89076862  0.40925179  0.82507182     0.06670
Br1214     Br  0.94965043  0.36556294  0.77354076    -0.03940
C1215       C  0.98878870  0.39560682  0.45805621    -0.10570
C1216       C  0.02736587  0.41215470  0.48446622     0.05620
C1217       C  0.04807760  0.43872290  0.97222868    -0.04340
C1218       C  0.02141288  0.44935512  0.93605986    -0.08790
C1219       C  0.97375681  0.43389114  0.91206979     0.04740
C1220       C  0.96453807  0.40563465  0.92171011    -0.03820
Br1221     Br  0.92886424  0.37755322  0.88674565    -0.03510
H1222       H  0.97922358  0.37411800  0.46533819     0.08650
H1223       H  0.03158105  0.47077952  0.92887498     0.06670
Br1224     Br  0.11291593  0.46094376  0.50315155    -0.03940
C1225       C  0.40238503  0.48840419  0.76563665    -0.10570
C1226       C  0.43612263  0.50425235  0.73541336     0.05620
C1227       C  0.42440912  0.49693145  0.69534701    -0.04340
C1228       C  0.39075975  0.47222931  0.68635516    -0.08790
C1229       C  0.36812054  0.45397954  0.71652564     0.04740
C1230       C  0.36951862  0.46309554  0.75650299    -0.03820
Br1231     Br  0.32613493  0.44241927  0.79901846    -0.03510
H1232       H  0.40753630  0.49409293  0.79678496     0.08650
H1233       H  0.38365831  0.46709028  0.65511093     0.06670
Br1234     Br  0.46116352  0.51808886  0.65149864    -0.03940
C1235       C  0.55599353  0.48105092  0.78214542    -0.10570
C1236       C  0.56668898  0.50126920  0.75222362     0.05620
C1237       C  0.61297456  0.49410071  0.72030118    -0.04340
C1238       C  0.62701681  0.46641548  0.71258195    -0.08790
C1239       C  0.59368563  0.44559356  0.73526356     0.04740
C1240       C  0.56273587  0.45289795  0.77227536    -0.03820
Br1241     Br  0.52014247  0.42603050  0.80694097    -0.03510
H1242       H  0.52755960  0.48659656  0.80942826     0.08650
H1243       H  0.65895328  0.46124512  0.68628902     0.06670
Br1244     Br  0.65216605  0.51974386  0.68286747    -0.03940
C1245       C  0.45100616  0.48440690  0.54829000    -0.10570
C1246       C  0.44107486  0.49886374  0.51232187     0.05620
C1247       C  0.39686287  0.48692556  0.48250024    -0.04660
C1248       C  0.36605269  0.46073807  0.48871806    -0.08790
C1249       C  0.38276234  0.44550318  0.52324044     0.04740
C1250       C  0.42704434  0.45747101  0.55252258    -0.03820
Br1251     Br  0.45984942  0.43675283  0.59805147    -0.03510
H1252       H  0.48679784  0.49254213  0.57092305     0.08650
H1253       H  0.32892213  0.45241096  0.46685865     0.06670
Br1254     Br  0.38036815  0.50491978  0.93233832    -0.03940
C1255       C  0.64757858  0.46963327  0.53357889    -0.10570
C1256       C  0.62502819  0.44709172  0.50999296     0.05620
C1257       C  0.58983764  0.45236941  0.47380908    -0.04340
C1258       C  0.56546344  0.47927647  0.46618382    -0.08790
C1259       C  0.56966273  0.50005752  0.49617399     0.04740
C1260       C  0.61806490  0.49584150  0.52806356    -0.03820
Br1261     Br  0.63181551  0.52166650  0.57107543    -0.03510
H1262       H  0.67933757  0.46607195  0.56030464     0.08650
H1263       H  0.53146601  0.48254571  0.44030903     0.06670
Br1264     Br  0.56254469  0.42321615  0.43806254    -0.03940
C1265       C  0.36781757  0.60386394  0.01373507    -0.10570
C1266       C  0.38357104  0.61543579  0.97615305     0.05620
C1267       C  0.42286444  0.59935513  0.94809913    -0.04340
C1268       C  0.44147144  0.57219784  0.95647285    -0.08790
C1269       C  0.43558815  0.56184740  0.99544603     0.04740
C1270       C  0.39542010  0.57751851  0.52386322    -0.03820
Br1271     Br  0.37942677  0.56397379  0.57689476    -0.03510
H1272       H  0.33461383  0.61518616  0.53503456     0.08650
H1273       H  0.47283220  0.56091504  0.93431354     0.06670
Br1274     Br  0.46116065  0.61451338  0.89928233    -0.03940
C1275       C  0.42612993  0.58687245  0.71835475    -0.10570
C1276       C  0.44385895  0.56580294  0.74580411     0.05620
C1277       C  0.42423827  0.56970726  0.78623556    -0.04340
C1278       C  0.39397246  0.59452274  0.79843981    -0.08790
C1279       C  0.38727853  0.61730602  0.77249862     0.04740
C1280       C  0.40489104  0.61332476  0.73176355    -0.03820
Br1281     Br  0.41369612  0.64328707  0.69472276    -0.03510
H1282       H  0.43796204  0.58394856  0.68697597     0.08650
H1283       H  0.37979958  0.59623014  0.82981159     0.06670
Br1284     Br  0.44926644  0.54477691  0.82879257    -0.03940
C1285       C  0.05584857  0.59760705  0.74338933    -0.10570
C1286       C  0.10308379  0.62029717  0.74233107     0.05620
C1287       C  0.15523723  0.62053349  0.71129384    -0.04340
C1288       C  0.14749441  0.60256390  0.67868667    -0.08790
C1289       C  0.08034085  0.59088084  0.67252072     0.04740
C1290       C  0.04948053  0.58111703  0.70843057    -0.03820
Br1291     Br  0.98677126  0.55009940  0.70634001    -0.03510
H1292       H  0.02119831  0.59408711  0.76902617     0.08650
H1293       H  0.18836701  0.60069942  0.65593018     0.06670
Br1294     Br  0.23328617  0.64564433  0.71020979    -0.03940
C1295       C  0.07570918  0.58511212  0.54885315    -0.10570
C1296       C  0.10104617  0.60117071  0.58149469     0.05620
C1297       C  0.15772860  0.61968658  0.57176929    -0.04340
C1298       C  0.16456841  0.62882794  0.53264639    -0.08790
C1299       C  0.11311176  0.62155279  0.00424781     0.04740
C1300       C  0.07459010  0.59705465  0.51028604    -0.03820
Br1301     Br  0.01279215  0.58219593  0.96985648    -0.03510
H1302       H  0.03979449  0.56807947  0.55466990     0.08650
H1303       H  0.20160335  0.64552006  0.02640710     0.06670
Br1304     Br  0.21041751  0.64229440  0.60820049    -0.03940
C1305       C  0.60673671  0.61154055  0.73010416    -0.10570
C1306       C  0.62342723  0.61338371  0.77084737     0.05620
C1307       C  0.63343183  0.58833481  0.79267326    -0.04340
C1308       C  0.60865892  0.56368851  0.77678002    -0.08790
C1309       C  0.57579213  0.56327458  0.73938229     0.04740
C1310       C  0.58708893  0.58607299  0.71363718    -0.03820
Br1311     Br  0.57217363  0.58392505  0.65677578    -0.03510
H1312       H  0.60661511  0.62981436  0.71150746     0.08650
H1313       H  0.60613809  0.54581040  0.79609059     0.06670
Br1314     Br  0.67723564  0.58479845  0.84476886    -0.03940
C1315       C  0.56051372  0.58526898  0.53789816    -0.10570
C1316       C  0.56458702  0.56339129  0.00952194     0.05620
C1317       C  0.61115242  0.56652694  0.97633676    -0.04340
C1318       C  0.64263607  0.59196738  0.96974771    -0.08790
C1319       C  0.62143447  0.61558502  0.99185667     0.04740
C1320       C  0.58489386  0.61180647  0.02822206    -0.03820
Br1321     Br  0.55848883  0.64207505  0.56257405    -0.03510
H1322       H  0.52760443  0.58295333  0.56447608     0.08650
H1323       H  0.67594491  0.59389197  0.94317958     0.06670
Br1324     Br  0.62067209  0.54096567  0.93230417    -0.03940
C1325       C  0.90140808  0.62797834  0.52863673    -0.10570
C1326       C  0.92490416  0.65395188  0.01578207     0.05620
C1327       C  0.97306919  0.66886203  0.04002578    -0.04340
C1328       C  0.00776690  0.65567375  0.57140305    -0.08790
C1329       C  0.98785530  0.62913923  0.58334255     0.04740
C1330       C  0.93033433  0.61606522  0.56335514    -0.03820
Br1331     Br  0.89374806  0.58112453  0.58068298    -0.03510
H1332       H  0.85950269  0.61730560  0.51231062     0.08650
H1333       H  0.05380107  0.66565213  0.58438131     0.06670
Br1334     Br  0.99554207  0.70707112  0.03145533    -0.03940
C1335       C  0.91884220  0.61379270  0.68836945    -0.10570
C1336       C  0.97848355  0.62650184  0.67003866     0.05620
C1337       C  0.99824076  0.65311700  0.68369963    -0.04340
C1338       C  0.96546455  0.66438019  0.71760077    -0.08790
C1339       C  0.91586974  0.64934341  0.74001691     0.04740
C1340       C  0.88939571  0.62444315  0.72415219    -0.03820
Br1341     Br  0.81407254  0.60434005  0.75007858    -0.03510
H1342       H  0.90001664  0.59414801  0.67713719     0.08650
H1343       H  0.98173218  0.68469213  0.72785997     0.06670
Br1344     Br  0.07474487  0.67465170  0.66202495    -0.03940
C1345       C  0.39803966  0.93115591  0.96837230    -0.10570
C1346       C  0.43469307  0.90879518  0.48622623     0.05620
C1347       C  0.49220937  0.89665084  0.46472908    -0.04340
C1348       C  0.51839756  0.90909807  0.92973537    -0.08790
C1349       C  0.48598984  0.93304926  0.91413457     0.04740
C1350       C  0.42196111  0.94280678  0.93238818    -0.03820
Br1351     Br  0.36965981  0.97395043  0.91178149    -0.03510
H1352       H  0.34979161  0.93951657  0.98245452     0.08650
H1353       H  0.56678455  0.90082803  0.91592187     0.06670
Br1354     Br  0.53265656  0.86198690  0.47916768    -0.03940
C1355       C  0.48881452  0.90262481  0.77146769    -0.10570
C1356       C  0.42981541  0.91571024  0.75371644     0.05620
C1357       C  0.39439531  0.93728745  0.77472937    -0.04340
C1358       C  0.42038373  0.94632560  0.81166946    -0.08790
C1359       C  0.48543634  0.93588533  0.82678406     0.04740
C1360       C  0.51715579  0.91266086  0.80751610    -0.03820
Br1361     Br  0.59951508  0.89384304  0.82824048    -0.03510
H1362       H  0.51251983  0.88444934  0.75747469     0.08650
H1363       H  0.39561517  0.96431538  0.82549061     0.06670
Br1364     Br  0.31480509  0.95728090  0.75184857    -0.03940
C1365       C  0.08251216  0.97579666  0.68062676    -0.10570
C1366       C  0.10686361  0.95895688  0.71178827     0.05620
C1367       C  0.11277292  0.97014873  0.75079032    -0.04340
C1368       C  0.08519625  0.99666289  0.75837143    -0.08790
C1369       C  0.04544983  0.01027421  0.72867606     0.04740
C1370       C  0.05194261  0.00132653  0.68869717    -0.03820
Br1371     Br  0.99926768  0.01828469  0.64599319    -0.03510
H1372       H  0.07762590  0.96760789  0.65058945     0.08650
H1373       H  0.08331848  0.00426984  0.78890653     0.06670
Br1374     Br  0.14143080  0.94864471  0.79628005    -0.03940
C1375       C  0.13796535  0.97762398  0.57128317    -0.10570
C1376       C  0.13960367  0.95862887  0.53956715     0.05620
C1377       C  0.13825944  0.96903107  0.50015845    -0.04340
C1378       C  0.11249043  0.99601882  0.49419386    -0.08790
C1379       C  0.08470092  0.01107949  0.52705975     0.04740
C1380       C  0.11486330  0.00464628  0.56430249    -0.03820
Br1381     Br  0.15286160  0.03335867  0.59709569    -0.03510
H1382       H  0.15694294  0.97162205  0.60058932     0.08650
H1383       H  0.10050771  0.00226812  0.46396937     0.06670
Br1384     Br  0.15947071  0.94675708  0.45382827    -0.03940
C1385       C  0.66239844  0.95826088  0.78007391    -0.10570
C1386       C  0.61078038  0.95547222  0.74913581     0.05620
C1387       C  0.54931659  0.97252600  0.75199899    -0.04340
C1388       C  0.53265612  0.98501471  0.78959112    -0.08790
C1389       C  0.57037182  0.97631208  0.82459516     0.04740
C1390       C  0.64311640  0.97066645  0.81681200    -0.03820
Br1391     Br  0.71487697  0.98998931  0.84655543    -0.03510
H1392       H  0.71687986  0.95051770  0.77595385     0.08650
H1393       H  0.48128170  0.99553384  0.79285346     0.06670
Br1394     Br  0.48604082  0.97726592  0.70723391    -0.03940
C1395       C  0.66773609  0.94978300  0.97050254    -0.10570
C1396       C  0.61513749  0.95165862  0.50112714     0.05620
C1397       C  0.55726171  0.96983502  0.49411068    -0.04340
C1398       C  0.54666708  0.98017621  0.95470067    -0.08790
C1399       C  0.58222308  0.96723912  0.92148714     0.04740
C1400       C  0.64853446  0.95402830  0.93056616    -0.03820
Br1401     Br  0.70128417  0.93094821  0.89367733    -0.03510
H1402       H  0.71740799  0.93850018  0.97591728     0.08650
H1403       H  0.49922213  0.99267338  0.94932816     0.06670
Br1404     Br  0.48888706  0.97877853  0.53531840    -0.03940
C1405       C  0.86233079  0.96810111  0.55890516    -0.10570
C1406       C  0.89076086  0.94467098  0.53990112     0.05620
C1407       C  0.94024495  0.94816504  0.50893663    -0.04340
C1408       C  0.96420467  0.97467494  0.49972757    -0.08790
C1409       C  0.95042682  0.99750992  0.52546491     0.04740
C1410       C  0.89312840  0.99426563  0.55355342    -0.03820
Br1411     Br  0.85085280  0.02302486  0.58561932    -0.03510
H1412       H  0.81658441  0.96585546  0.57848436     0.08650
H1413       H  0.99714075  0.97676233  0.47331822     0.06670
Br1414     Br  0.97954191  0.91692871  0.48051604    -0.03940
C1415       C  0.87593844  0.99520962  0.70623390    -0.10570
C1416       C  0.91664568  0.00084184  0.74072138     0.05620
C1417       C  0.92231428  0.97974284  0.76975238    -0.04340
C1418       C  0.90668947  0.95237113  0.75945808    -0.08790
C1419       C  0.87895271  0.94603410  0.72160756     0.04740
C1420       C  0.85521387  0.96797436  0.69739209    -0.03820
Br1421     Br  0.78716302  0.96156103  0.65575556    -0.03510
H1422       H  0.86336115  0.01156882  0.68536218     0.08650
H1423       H  0.91660607  0.93606600  0.78090913     0.06670
Br1424     Br  0.95191207  0.98755496  0.82366932    -0.03940
loop_ 
_geom_bond_atom_site_label_1 
_geom_bond_atom_site_label_2 
_geom_bond_distance 
_geom_bond_site_symmetry_2 
_ccdc_geom_bond_type 
N1            N2   1.330       .  A
N1            N7   1.313       .  A
N1          Mn30   2.203       .  S
N2            C9   1.362       .  A
N3            N5   1.309       .  A
N3            N4   1.328       .  A
N3          Mn19   2.245       .  S
N4           C10   1.362       .  A
N5            N6   1.317       .  A
N5          Mn30   2.146       .  S
N6           C10   1.341       .  A
N7            N8   1.307       .  A
N7          Mn19   2.190       .  S
N8            C9   1.339       .  A
C9           C46   1.512       .  S
C10         C707   1.479       .  S
N11          N17   1.312       .  A
N11          N12   1.320       .  A
N11         Mn41   2.177       .  S
N12          C20   1.346       .  A
N13          N14   1.309       .  A
N13          N15   1.312       .  A
N13         Mn19   2.204       .  S
N14          C21   1.344       .  A
N15          N16   1.331       .  A
N15         Mn41   2.193       .  S
N16          C21   1.361       .  A
N17          N18   1.324       .  A
N17         Mn19   2.211       .  S
N18          C20   1.355       .  A
Mn19        Cl43   2.453       .  S
C20         C694   1.471       .  S
C21          C93   1.520       .  S
N22          N23   1.308       .  A
N22          N28   1.318       .  A
N22         Mn30   2.157       .  S
N23          C31   1.335       .  A
N24          N26   1.322       .  A
N24          N25   1.313       .  A
N24         Mn42   2.272       .  S
N25          C32   1.359       .  A
N26          N27   1.333       .  A
N26         Mn30   2.202       .  S
N27          C32   1.357       .  A
N28          N29   1.339       .  A
N28         Mn42   2.289       .  S
N29          C31   1.375       .  A
Mn30        Cl43   2.595       .  S
C31         C674   1.500       .  S
C32         C185   1.524       .  S
N33          N34   1.337       .  A
N33          N39   1.323       .  A
N33         Mn41   2.226       .  S
N34          C44   1.362       .  A
N35          N36   1.345       .  A
N35          N37   1.313       .  A
N35         Mn42   2.290       .  S
N36          C45   1.379       .  A
N37          N38   1.301       .  A
N37         Mn41   2.136       .  S
N38          C45   1.333       .  A
N39          N40   1.319       .  A
N39         Mn42   2.299       .  S
N40          C44   1.364       .  A
Mn41        Cl43   2.586       .  S
Mn42        Cl43   2.504       .  S
C44         C188   1.544       .  S
C45         C684   1.509       .  S
C46          C68   1.511   1_655  S
C46          C47   1.365       .  D
C47         C115   1.486       .  S
C47         C148   1.501   1_655  S
N48          N49   1.327       .  A
N48          N54   1.310       .  A
N48         Mn77   2.168       .  S
N49          C56   1.357       .  A
N50          N52   1.314       .  A
N50          N51   1.321       .  A
N50         Mn66   2.210       .  S
N51          C57   1.354       .  A
N52          N53   1.320       .  A
N52         Mn77   2.170       .  S
N53          C57   1.345       .  A
N54          N55   1.302       .  A
N54         Mn66   2.178       .  S
N55          C56   1.347       .  A
C56          C93   1.499   1_455  S
C57         C664   1.470       .  S
N58          N64   1.309       .  A
N58          N59   1.321       .  A
N58         Mn88   2.172       .  S
N59          C67   1.349       .  A
N60          N61   1.307       .  A
N60          N62   1.314       .  A
N60         Mn66   2.208       .  S
N61          C68   1.352       .  A
N62          N63   1.330       .  A
N62         Mn88   2.191       .  S
N63          C68   1.359       .  A
N64          N65   1.313       .  A
N64         Mn66   2.166       .  S
N65          C67   1.350       .  A
Mn66        Cl90   2.468       .  S
C67         C654   1.466       .  S
N69          N70   1.306       .  A
N69          N75   1.313       .  A
N69         Mn77   2.106       .  S
N70          C78   1.330       .  A
N71          N73   1.314       .  A
N71          N72   1.305       .  A
N71         Mn89   2.167       .  S
N72          C79   1.334       .  A
N73          N74   1.322       .  A
N73         Mn77   2.194       .  S
N74          C79   1.358       .  A
N75          N76   1.338       .  A
N75         Mn89   2.297       .  S
N76          C78   1.374       .  A
Mn77        Cl90   2.570       .  S
C78         C634   1.483   1_554  S
C79         C188   1.481       .  S
N80          N81   1.327       .  A
N80          N86   1.313       .  A
N80         Mn88   2.200       .  S
N81          C91   1.360       .  A
N82          N83   1.332       .  A
N82          N84   1.315       .  A
N82         Mn89   2.265       .  S
N83          C92   1.369       .  A
N84          N85   1.302       .  A
N84         Mn88   2.108       .  S
N85          C92   1.329       .  A
N86          N87   1.308       .  A
N86         Mn89   2.186       .  S
N87          C91   1.339       .  A
Mn88        Cl90   2.567       .  S
Mn89        Cl90   2.464       .  S
C91         C185   1.494       .  S
C92         C644   1.462       .  S
C93         C806   1.366   1_554  D
C94         C103   1.476       .  S
C94         C160   1.503   1_655  S
C94         C805   1.366       .  D
N95          N96   1.312       .  A
N95         N101   1.314       .  A
N95        Mn124   2.152       .  S
N96         C103   1.340       .  A
N97          N99   1.319       .  A
N97          N98   1.327       .  A
N97        Mn113   2.243       .  S
N98         C104   1.357       .  A
N99         N100   1.317       .  A
N99        Mn124   2.186       .  S
N100        C104   1.348       .  A
N101        N102   1.330       .  A
N101       Mn113   2.228       .  S
N102        C103   1.361       .  A
C104        C187   1.474       .  S
N105        N111   1.318       .  A
N105        N106   1.322       .  A
N105       Mn135   2.210       .  S
N106        C114   1.353       .  A
N107        N108   1.331       .  A
N107        N109   1.314       .  A
N107       Mn113   2.235       .  S
N108        C115   1.362       .  A
N109        N110   1.316       .  A
N109       Mn135   2.170       .  S
N110        C115   1.344       .  A
N111        N112   1.327       .  A
N111       Mn113   2.242       .  S
N112        C114   1.357       .  A
Mn113      Cl137   2.531       .  S
C114        C186   1.488       .  S
N116        N117   1.334       .  A
N116        N122   1.312       .  A
N116       Mn124   2.215       .  S
N117        C125   1.365       .  A
N118        N120   1.314       .  A
N118        N119   1.329       .  A
N118       Mn136   2.234       .  S
N119        C126   1.363       .  A
N120        N121   1.307       .  A
N120       Mn124   2.129       .  S
N121        C126   1.333       .  A
N122        N123   1.301       .  A
N122       Mn136   2.140       .  S
N123        C125   1.334       .  A
Mn124      Cl137   2.541       .  S
C125        C607   1.483       .  S
C126        C614   1.463       .  S
N127        N128   1.308       .  A
N127        N133   1.316       .  A
N127       Mn135   2.134       .  S
N128        C138   1.334       .  A
N129        N130   1.300       .  A
N129        N131   1.314       .  A
N129       Mn136   2.137       .  S
N130        C139   1.326       .  A
N131        N132   1.332       .  A
N131       Mn135   2.222       .  S
N132        C139   1.365       .  A
N133        N134   1.330       .  A
N133       Mn136   2.234       .  S
N134        C138   1.362       .  A
Mn135      Cl137   2.540       .  S
Mn136      Cl137   2.489       .  S
C138        C627   1.465       .  S
C139        C594   1.476       .  S
N140        N141   1.326       .  A
N140        N146   1.321       .  A
N140       Mn169   2.248       .  S
N141        C148   1.358       .  A
N142        N144   1.317       .  A
N142        N143   1.326       .  A
N142       Mn158   2.222       .  S
N143        C149   1.355       .  A
N144        N145   1.323       .  A
N144       Mn169   2.217       .  S
N145        C149   1.355       .  A
N146        N147   1.328       .  A
N146       Mn158   2.237       .  S
N147        C148   1.356       .  A
C149        C186   1.493       .  S
N150        N156   1.319       .  A
N150        N151   1.326       .  A
N150       Mn180   2.240       .  S
N151        C159   1.359       .  A
N152        N153   1.330       .  A
N152        N154   1.319       .  A
N152       Mn158   2.230       .  S
N153        C160   1.357       .  A
N154        N155   1.324       .  A
N154       Mn180   2.245       .  S
N155        C160   1.356       .  A
N156        N157   1.328       .  A
N156       Mn158   2.238       .  S
N157        C159   1.357       .  A
Mn158      Cl182   2.523       .  S
C159        C187   1.509       .  S
N161        N162   1.334       .  A
N161        N167   1.309       .  A
N161       Mn169   2.232       .  S
N162        C170   1.369       .  A
N163        N165   1.320       .  A
N163        N164   1.323       .  A
N163       Mn181   2.167       .  S
N164        C171   1.342       .  A
N165        N166   1.319       .  A
N165       Mn169   2.220       .  S
N166        C171   1.352       .  A
N167        N168   1.300       .  A
N167       Mn181   2.128       .  S
N168        C170   1.335       .  A
Mn169      Cl182   2.572       .  S
C170        C567   1.489       .  S
C171        C574   1.482       .  S
N172        N173   1.313       .  A
N172        N178   1.322       .  A
N172       Mn180   2.221       .  S
N173        C183   1.350       .  A
N174        N175   1.303       .  A
N174        N176   1.310       .  A
N174       Mn181   2.122       .  S
N175        C184   1.333       .  A
N176        N177   1.337       .  A
N176       Mn180   2.243       .  S
N177        C184   1.370       .  A
N178        N179   1.324       .  A
N178       Mn181   2.157       .  S
N179        C183   1.342       .  A
Mn180      Cl182   2.564       .  S
Mn181      Cl182   2.475       .  S
C183        C587   1.476       .  S
C184        C554   1.479       .  S
C185        C186   1.366       .  D
C187        C900   1.367       .  D
C188        C899   1.367   1_554  D
C189        C637   1.499       .  S
C189        C687   1.509       .  S
C189        C190   1.385       .  D
C190        C647   1.499       .  S
C190        C677   1.529       .  S
C191        C577   1.512       .  S
C191        C624   1.505   1_455  S
C191        C192   1.365       .  D
C192        C584   1.502       .  S
C192        C617   1.491   1_455  S
C193       C1269   1.494   1_554  S
C193       C1316   1.496       .  S
C193        C194   1.368       .  D
C194        C534   1.490       .  S
C194        C547   1.498   1_554  S
C195        C564   1.492       .  S
C195        C597   1.487       .  S
C195        C196   1.366       .  D
C196        C514   1.492       .  S
C196        C524   1.500       .  S
N197        N198   1.305       .  A
N197        N203   1.313       .  A
N197       Mn226   2.133       .  S
N198        C205   1.335       .  A
N199        N201   1.317       .  A
N199        N200   1.308       .  A
N199       Mn215   2.162       .  S
N200        C206   1.338       .  A
N201        N202   1.326       .  A
N201       Mn226   2.195       .  S
N202        C206   1.356       .  A
N203        N204   1.333       .  A
N203       Mn215   2.238       .  S
N204        C205   1.366       .  A
C205        C537   1.467       .  S
C206        C504   1.460   1_554  S
N207        N213   1.317       .  A
N207        N208   1.338       .  A
N207       Mn237   2.286       .  S
N208        C216   1.370       .  A
N209        N210   1.321       .  A
N209        N211   1.319       .  A
N209       Mn215   2.198       .  S
N210        C217   1.351       .  A
N211        N212   1.334       .  A
N211       Mn237   2.287       .  S
N212        C217   1.365       .  A
N213        N214   1.319       .  A
N213       Mn215   2.182       .  S
N214        C216   1.344       .  A
Mn215      Cl239   2.541       .  S
C216        C383   1.514   1_455  S
C217        C290   1.510       .  S
N218        N219   1.325       .  A
N218        N224   1.317       .  A
N218       Mn226   2.200       .  S
N219        C227   1.355       .  A
N220        N222   1.316       .  A
N220        N221   1.334       .  A
N220       Mn238   2.250       .  S
N221        C228   1.369       .  A
N222        N223   1.302       .  A
N222       Mn226   2.125       .  S
N223        C228   1.331       .  A
N224        N225   1.307       .  A
N224       Mn238   2.146       .  S
N225        C227   1.335       .  A
Mn226      Cl239   2.523       .  S
C227        C494   1.450       .  S
C228        C517   1.475       .  S
N229        N230   1.331       .  A
N229        N235   1.319       .  A
N229       Mn237   2.272       .  S
N230        C240   1.362       .  A
N231        N232   1.321       .  A
N231        N233   1.318       .  A
N231       Mn238   2.196       .  S
N232        C241   1.345       .  A
N233        N234   1.339       .  A
N233       Mn237   2.295       .  S
N234        C241   1.371       .  A
N235        N236   1.324       .  A
N235       Mn238   2.215       .  S
N236        C240   1.355       .  A
Mn237      Cl239   2.541       .  S
Mn238      Cl239   2.549       .  S
C240        C287   1.510       .  S
C241        C381   1.518   1_455  S
N242        N243   1.335       .  A
N242        N248   1.321       .  A
N242       Mn271   2.284       .  S
N243        C250   1.367       .  A
N244        N246   1.317       .  A
N244        N245   1.320       .  A
N244       Mn260   2.193       .  S
N245        C251   1.349       .  A
N246        N247   1.333       .  A
N246       Mn271   2.268       .  S
N247        C251   1.364       .  A
N248        N249   1.321       .  A
N248       Mn260   2.213       .  S
N249        C250   1.350       .  A
C250        C290   1.511       .  S
C251        C383   1.502       .  S
N252        N258   1.319       .  A
N252        N253   1.321       .  A
N252       Mn282   2.179       .  S
N253        C261   1.344       .  A
N254        N255   1.329       .  A
N254        N256   1.311       .  A
N254       Mn260   2.200       .  S
N255        C262   1.356       .  A
N256        N257   1.307       .  A
N256       Mn282   2.140       .  S
N257        C262   1.337       .  A
N258        N259   1.314       .  A
N258       Mn260   2.206       .  S
N259        C261   1.354       .  A
Mn260      Cl284   2.553       .  S
C261        C477   1.471       .  S
C262        C544   1.476       .  S
N263        N264   1.334       .  A
N263        N269   1.323       .  A
N263       Mn271   2.276       .  S
N264        C272   1.362       .  A
N265        N267   1.317       .  A
N265        N266   1.316       .  A
N265       Mn283   2.172       .  S
N266        C273   1.342       .  A
N267        N268   1.335       .  A
N267       Mn271   2.276       .  S
N268        C273   1.367       .  A
N269        N270   1.324       .  A
N269       Mn283   2.242       .  S
N270        C272   1.355       .  A
Mn271      Cl284   2.519       .  S
C272        C381   1.517       .  S
C273        C287   1.498       .  S
N274        N275   1.307       .  A
N274        N280   1.312       .  A
N274       Mn282   2.154       .  S
N275        C285   1.340       .  A
N276        N277   1.319       .  A
N276        N278   1.317       .  A
N276       Mn283   2.191       .  S
N277        C286   1.350       .  A
N278        N279   1.325       .  A
N278       Mn282   2.187       .  S
N279        C286   1.344       .  A
N280        N281   1.326       .  A
N280       Mn283   2.216       .  S
N281        C285   1.357       .  A
Mn282      Cl284   2.467       .  S
Mn283      Cl284   2.558       .  S
C285        C527   1.479       .  S
C286        C484   1.482       .  S
C287        C288   1.384       .  D
C288        C299   1.520       .  S
C288        C356   1.508       .  S
C289        C311   1.508       .  S
C289        C344   1.510       .  S
C289       C1002   1.385       .  D
C290       C1001   1.385   1_554  D
N291        N292   1.324       .  A
N291        N297   1.320       .  A
N291       Mn320   2.223       .  S
N292        C299   1.354       .  A
N293        N295   1.317       .  A
N293        N294   1.334       .  A
N293       Mn309   2.271       .  S
N294        C300   1.366       .  A
N295        N296   1.320       .  A
N295       Mn320   2.192       .  S
N296        C300   1.347       .  A
N297        N298   1.335       .  A
N297       Mn309   2.288       .  S
N298        C299   1.366       .  A
C300        C382   1.505       .  S
N301        N307   1.322       .  A
N301        N302   1.324       .  A
N301       Mn331   2.225       .  S
N302        C310   1.352       .  A
N303        N304   1.332       .  A
N303        N305   1.319       .  A
N303       Mn309   2.249       .  S
N304        C311   1.360       .  A
N305        N306   1.322       .  A
N305       Mn331   2.231       .  S
N306        C311   1.353       .  A
N307        N308   1.334       .  A
N307       Mn309   2.288       .  S
N308        C310   1.366       .  A
Mn309      Cl333   2.537       .  S
C310        C384   1.515       .  S
N312        N313   1.324       .  A
N312        N318   1.312       .  A
N312       Mn320   2.206       .  S
N313        C321   1.358       .  A
N314        N316   1.318       .  A
N314        N315   1.320       .  A
N314       Mn332   2.170       .  S
N315        C322   1.341       .  A
N316        N317   1.319       .  A
N316       Mn320   2.200       .  S
N317        C322   1.352       .  A
N318        N319   1.306       .  A
N318       Mn332   2.144       .  S
N319        C321   1.337       .  A
Mn320      Cl333   2.566       .  S
C321        C444   1.473       .  S
C322        C454   1.474       .  S
N323        N324   1.315       .  A
N323        N329   1.320       .  A
N323       Mn331   2.220       .  S
N324        C334   1.354       .  A
N325        N326   1.309       .  A
N325        N327   1.313       .  A
N325       Mn332   2.132       .  S
N326        C335   1.333       .  A
N327        N328   1.331       .  A
N327       Mn331   2.237       .  S
N328        C335   1.364       .  A
N329        N330   1.324       .  A
N329       Mn332   2.173       .  S
N330        C334   1.344       .  A
Mn331      Cl333   2.559       .  S
Mn332      Cl333   2.464       .  S
C334        C464   1.479       .  S
C335        C434   1.487       .  S
N336        N337   1.317       .  A
N336        N342   1.315       .  A
N336       Mn365   2.165       .  S
N337        C344   1.341       .  A
N338        N340   1.318       .  A
N338        N339   1.334       .  A
N338       Mn354   2.289       .  S
N339        C345   1.366       .  A
N340        N341   1.318       .  A
N340       Mn365   2.178       .  S
N341        C345   1.348       .  A
N342        N343   1.338       .  A
N342       Mn354   2.290       .  S
N343        C344   1.372       .  A
C345        C384   1.504   1_455  S
N346        N352   1.317       .  A
N346        N347   1.321       .  A
N346       Mn376   2.192       .  S
N347        C355   1.350       .  A
N348        N349   1.337       .  A
N348        N350   1.318       .  A
N348       Mn354   2.284       .  S
N349        C356   1.369       .  A
N350        N351   1.318       .  A
N350       Mn376   2.189       .  S
N351        C356   1.344       .  A
N352        N353   1.333       .  A
N352       Mn354   2.279       .  S
N353        C355   1.365       .  A
Mn354      Cl378   2.540       .  S
C355        C382   1.505   1_455  S
N357        N358   1.329       .  A
N357        N363   1.311       .  A
N357       Mn365   2.203       .  S
N358        C366   1.362       .  A
N359        N361   1.318       .  A
N359        N360   1.327       .  A
N359       Mn377   2.219       .  S
N360        C367   1.360       .  A
N361        N362   1.307       .  A
N361       Mn365   2.147       .  S
N362        C367   1.333       .  A
N363        N364   1.300       .  A
N363       Mn377   2.127       .  S
N364        C366   1.335       .  A
Mn365      Cl378   2.536       .  S
C366        C404   1.465       .  S
C367        C417   1.458       .  S
N368        N369   1.309       .  A
N368        N374   1.317       .  A
N368       Mn376   2.154       .  S
N369        C379   1.336       .  A
N370        N371   1.308       .  A
N370        N372   1.315       .  A
N370       Mn377   2.149       .  S
N371        C380   1.337       .  A
N372        N373   1.328       .  A
N372       Mn376   2.227       .  S
N373        C380   1.363       .  A
N374        N375   1.327       .  A
N374       Mn377   2.209       .  S
N375        C379   1.358       .  A
Mn376      Cl378   2.533       .  S
Mn377      Cl378   2.533       .  S
C379        C424   1.459       .  S
C380        C394   1.462       .  S
C381        C382   1.385       .  D
C383       C1096   1.386   1_554  D
C384       C1095   1.386       .  D
C385        C487   1.515       .  S
C385        C497   1.484       .  S
C385        C386   1.367       .  D
C386        C474   1.489       .  S
C386        C507   1.503       .  S
C387        C414   1.487       .  S
C387        C467   1.505       .  S
C387        C388   1.369       .  D
C388        C427   1.506       .  S
C388        C457   1.513       .  S
C389        C667   1.518       .  S
C389        C697   1.526   1_445  S
C389        C390   1.369   1_455  D
C390       C1119   1.481   1_655  S
C390       C1149   1.498       .  S
C391        C657   1.474   1_655  S
C391        C704   1.501       .  S
C391        C392   1.352       .  D
C392        C397   1.495   1_655  S
C392        C447   1.487       .  S
C393        C394   1.396       .  A
C393        C398   1.398       .  A
C393        H400   1.084       .  S
C394        C395   1.407       .  A
C395        C396   1.393       .  A
C395       Br402   1.918       .  S
C396        C397   1.403       .  A
C396        H401   1.084   1_455  S
C397        C398   1.416       .  A
C398       Br399   1.903       .  S
C403        C404   1.403       .  A
C403        C408   1.376       .  A
C403        H410   1.081       .  S
C404        C405   1.405       .  A
C405       C1118   1.402       .  A
C405      Br1124   1.916       .  S
C406       C1117   1.402       .  A
C406       C1119   1.408       .  A
C406        H411   1.079       .  S
C407       C1102   1.481   1_455  S
C407        C408   1.404       .  A
C407       C1118   1.408       .  A
C408       Br409   1.924       .  S
Br412      C1117   1.916       .  S
C413        C414   1.397       .  A
C413        C418   1.382       .  A
C413        H420   1.073       .  S
C414        C415   1.411       .  A
C415       C1128   1.402       .  A
C415       Br422   1.918       .  S
C416        C417   1.403       .  A
C416       C1127   1.402       .  A
C416        H421   1.083       .  S
C417       C1130   1.403       .  A
C418       C1129   1.403       .  A
C418       Br419   1.917       .  S
C423        C424   1.390       .  A
C423        C428   1.387       .  A
C423        H430   1.085       .  S
C424        C425   1.407       .  A
C425        C426   1.404       .  A
C425       Br432   1.918       .  S
C426        C427   1.408       .  A
C426        H431   1.082       .  S
C427        C428   1.418       .  A
C428       Br429   1.906       .  S
C433        C434   1.393       .  A
C433       C1150   1.396       .  A
C433       H1152   1.083       .  S
C434        C435   1.428       .  A
C435        C436   1.402       .  A
C435       Br442   1.924       .  S
C436        C437   1.396       .  A
C436        H441   1.083       .  S
C437       C1102   1.498       .  S
C437       C1150   1.416       .  A
C438       C1145   1.396       .  A
C438       C1149   1.416       .  A
C438       Br439   1.895       .  S
H440       C1145   1.083       .  S
C443        C444   1.410       .  A
C443        C448   1.389       .  A
C443        H450   1.084       .  S
C444        C445   1.400       .  A
C445        C446   1.401       .  A
C445       Br452   1.918       .  S
C446        C447   1.409       .  A
C446        H451   1.073       .  S
C447        C448   1.402       .  A
C448       Br449   1.903       .  S
C453        C454   1.405       .  A
C453        C458   1.409       .  A
C453        H460   1.083       .  S
C454        C455   1.414       .  A
C455        C456   1.399       .  A
C455       Br462   1.905       .  S
C456        C457   1.389       .  A
C456        H461   1.073       .  S
C457        C458   1.416       .  A
C458       Br459   1.906       .  S
C463        C468   1.384       .  A
C463       C1176   1.389       .  A
C463        H470   1.081       .  S
C464        C465   1.404       .  A
C464       C1175   1.389       .  A
C465       C1178   1.416       .  A
C465       Br472   1.913       .  S
C466        C467   1.420       .  A
C466       C1177   1.416       .  A
C466        H471   1.082       .  S
C467        C468   1.425       .  A
C468       Br469   1.904       .  S
C473        C474   1.417       .  A
C473        C478   1.410       .  A
C473        H480   1.083       .  S
C474        C475   1.416       .  A
C475        C476   1.378       .  A
C475       Br482   1.905       .  S
C476       C1189   1.391       .  A
C476       H1193   1.082       .  S
C477       C1188   1.391   1_554  A
C477       C1190   1.402   1_554  A
C478       C1189   1.402       .  A
C478      Br1191   1.913       .  S
Br479      C1190   1.913   1_554  S
H481       C1188   1.082       .  S
C483        C484   1.408       .  A
C483        C488   1.413       .  A
C483        H490   1.083       .  S
C484        C485   1.414       .  A
C485        C486   1.401       .  A
C485       Br492   1.905       .  S
C486        C487   1.394       .  A
C486        H491   1.076       .  S
C487        C488   1.412       .  A
C488       Br489   1.903       .  S
C493        C494   1.405       .  A
C493        C498   1.404       .  A
C493        H500   1.083       .  S
C494        C495   1.398   1_455  A
C495        C496   1.380       .  A
C495       Br502   1.920       .  S
C496        C497   1.396       .  A
C496        H501   1.079       .  S
C497        C498   1.407   1_655  A
C498       Br499   1.915       .  S
C503        C504   1.391   1_655  A
C503       C1220   1.384       .  A
C503        H510   1.085       .  S
C504       C1217   1.408       .  A
C505        C506   1.404       .  A
C505       C1216   1.408       .  A
C505      Br1224   1.919       .  S
C506        C507   1.411   1_455  A
C506        H511   1.083       .  S
C507        C508   1.418       .  A
C508       C1215   1.384       .  A
C508       Br509   1.910       .  S
Br512      C1217   1.919   1_554  S
C513        C514   1.416       .  A
C513        C518   1.405       .  A
C513        H520   1.078       .  S
C514        C515   1.399       .  A
C515        C516   1.385       .  A
C515       Br522   1.916       .  S
C516        C517   1.407       .  A
C516        H521   1.079       .  S
C517        C518   1.403       .  A
C518       Br519   1.917       .  S
C523        C524   1.416       .  A
C523        C528   1.405       .  A
C523        H530   1.082       .  S
C524        C525   1.406       .  A
C525        C526   1.386       .  A
C525       Br532   1.910       .  S
C526        C527   1.408       .  A
C526        H531   1.084       .  S
C527        C528   1.402       .  A
C528       Br529   1.917       .  S
C533        C534   1.404       .  A
C533        C538   1.388       .  A
C533        H540   1.082       .  S
C534        C535   1.415   1_554  A
C535        C536   1.410       .  A
C535      Br1254   1.915       .  S
C536        C537   1.405   1_556  A
C536        H541   1.083       .  S
C537        C538   1.404       .  A
C538       Br539   1.922       .  S
Br542      C1247   1.915       .  S
C543        C544   1.409       .  A
C543        C548   1.392       .  A
C543        H550   1.084       .  S
C544        C545   1.398   1_554  A
C545        C546   1.401       .  A
C545       Br552   1.915       .  S
C546        C547   1.418       .  A
C546        H551   1.082       .  S
C547        C548   1.409   1_556  A
C548       Br549   1.917       .  S
C553        C554   1.406       .  A
C553       C1270   1.414       .  A
C553       H1272   1.083       .  S
C554        C555   1.411       .  A
C555        C556   1.387       .  A
C555       Br562   1.925       .  S
C556        C557   1.399       .  A
C556        H561   1.082       .  S
C557        C905   1.494       .  S
C557       C1270   1.417       .  A
C558       C1265   1.414       .  A
C558       C1269   1.417   1_554  A
C558       Br559   1.912       .  S
H560       C1265   1.083       .  S
C563        C564   1.412       .  A
C563        C568   1.408       .  A
C563        H570   1.077       .  S
C564        C565   1.407       .  A
C565        C566   1.381       .  A
C565       Br572   1.924       .  S
C566        C567   1.410       .  A
C566        H571   1.080       .  S
C567        C568   1.408       .  A
C568       Br569   1.917       .  S
C573        C574   1.410       .  A
C573        C578   1.415       .  A
C573        H580   1.083       .  S
C574        C575   1.414       .  A
C575        C576   1.398       .  A
C575       Br582   1.897       .  S
C576        C577   1.387       .  A
C576        H581   1.074       .  S
C577        C578   1.410       .  A
C578       Br579   1.907   1_455  S
C583        C584   1.418       .  A
C583        C588   1.413       .  A
C583        H590   1.082       .  S
C584        C585   1.424       .  A
C585        C586   1.385       .  A
C585       Br592   1.908       .  S
C586       C1299   1.393       .  A
C586       H1303   1.085       .  S
C587       C1298   1.393       .  A
C587       C1300   1.404       .  A
C588       C1299   1.404       .  A
C588      Br1301   1.914   1_554  S
Br589      C1300   1.914       .  S
H591       C1298   1.085       .  S
C593        C594   1.397       .  A
C593        C598   1.399       .  A
C593        H600   1.083       .  S
C594        C595   1.429       .  A
C595        C596   1.385       .  A
C595       Br602   1.928       .  S
C596        C597   1.390       .  A
C596        H601   1.083       .  S
C597        C598   1.418       .  A
C598       Br599   1.920       .  S
C603       C1316   1.418       .  A
C603       C1320   1.404       .  A
C603        H610   1.081       .  S
C604        C905   1.496       .  S
C604        C605   1.411       .  A
C604       C1315   1.418       .  A
C605        C606   1.385       .  A
C605       Br612   1.922       .  S
C606        C607   1.410       .  A
C606        H611   1.083       .  S
C607        C608   1.400       .  A
C608       C1315   1.404       .  A
C608      Br1321   1.915       .  S
Br609      C1320   1.915       .  S
C613        C618   1.403       .  A
C613       C1326   1.402       .  A
C613        H620   1.083       .  S
C614        C615   1.408       .  A
C614       C1325   1.402       .  A
C615       C1328   1.387   1_655  A
C615       Br622   1.922       .  S
C616        C617   1.399   1_455  A
C616       C1327   1.387   1_455  A
C616        H621   1.075       .  S
C617        C618   1.412       .  A
C618       Br619   1.918       .  S
C623        C624   1.409       .  A
C623        C628   1.405       .  A
C623        H630   1.081       .  S
C624        C625   1.416       .  A
C625        C626   1.389       .  A
C625       Br632   1.909   1_655  S
C626        C627   1.394       .  A
C626        H631   1.085       .  S
C627        C628   1.407       .  A
C628       Br629   1.914       .  S
C633        C638   1.401       .  A
C633       C1346   1.408       .  A
C633        H640   1.084       .  S
C634        C635   1.407       .  A
C634       C1345   1.408       .  A
C635       C1348   1.402       .  A
C635       Br642   1.899       .  S
C636        C637   1.406       .  A
C636       C1347   1.402       .  A
C636        H641   1.081       .  S
C637        C638   1.410       .  A
C638       Br639   1.919       .  S
C643        C644   1.396       .  A
C643        C648   1.400       .  A
C643        H650   1.084       .  S
C644        C645   1.412       .  A
C645        C646   1.394       .  A
C645       Br652   1.922       .  S
C646        C647   1.401       .  A
C646        H651   1.082       .  S
C647        C648   1.416       .  A
C648       Br649   1.907       .  S
C653        C654   1.398       .  A
C653        C658   1.381   1_565  A
C653        H660   1.080       .  S
C654        C655   1.411       .  A
C655        C656   1.400       .  A
C655       Br662   1.919       .  S
C656        C657   1.401   1_565  A
C656        H661   1.081   1_565  S
C657        C658   1.404       .  A
C658       Br659   1.915   1_455  S
C663        C664   1.398       .  A
C663        C668   1.395   1_565  A
C663        H670   1.081       .  S
C664        C665   1.410       .  A
C665        C666   1.403   1_554  A
C665       Br672   1.918   1_554  S
C666        C667   1.408   1_566  A
C666        H671   1.077   1_565  S
C667        C668   1.400       .  A
C668       Br669   1.905       .  S
C673        C674   1.417       .  A
C673        C678   1.406       .  A
C673        H680   1.083       .  S
C674        C675   1.406       .  A
C675        C676   1.421       .  A
C675       Br682   1.916       .  S
C676        C677   1.427       .  A
C676        H681   1.082       .  S
C677        C678   1.398       .  A
C678       Br679   1.910       .  S
C683        C688   1.396       .  A
C683       C1396   1.412       .  A
C683        H690   1.084       .  S
C684        C685   1.404   1_554  A
C684       C1395   1.412   1_554  A
C685       C1398   1.421       .  A
C685       Br692   1.912   1_556  S
C686        C687   1.427       .  A
C686       C1397   1.421       .  A
C686        H691   1.080       .  S
C687        C688   1.417       .  A
C688       Br689   1.919       .  S
C693        C694   1.396       .  A
C693        C698   1.405       .  A
C693        H700   1.072       .  S
C694        C695   1.391       .  A
C695        C696   1.397   1_554  A
C695       Br702   1.919   1_554  S
C696        C697   1.417   1_556  A
C696        H701   1.075       .  S
C697        C698   1.424       .  A
C698       Br699   1.914   1_565  S
C703        C704   1.405   1_565  A
C703        C708   1.406       .  A
C703        H710   1.082   1_565  S
C704        C705   1.415   1_545  A
C705        C706   1.400       .  A
C705       Br712   1.919       .  S
C706        C707   1.398       .  A
C706        H711   1.083       .  S
C707        C708   1.407       .  A
C708       Br709   1.906       .  S
N713        N714   1.330       .  A
N713        N719   1.313       .  A
N713       Mn742   2.203       .  S
N714        C721   1.362       .  A
N715        N717   1.309       .  A
N715        N716   1.328       .  A
N715       Mn731   2.245       .  S
N716        C722   1.362       .  A
N717        N718   1.317       .  A
N717       Mn742   2.146       .  S
N718        C722   1.341       .  A
N719        N720   1.307       .  A
N719       Mn731   2.190       .  S
N720        C721   1.339       .  A
C721        C758   1.512       .  S
C722       C1419   1.479       .  S
N723        N729   1.312       .  A
N723        N724   1.320       .  A
N723       Mn753   2.177       .  S
N724        C732   1.346       .  A
N725        N726   1.309       .  A
N725        N727   1.312       .  A
N725       Mn731   2.204       .  S
N726        C733   1.344       .  A
N727        N728   1.330       .  A
N727       Mn753   2.193       .  S
N728        C733   1.361       .  A
N729        N730   1.323       .  A
N729       Mn731   2.211       .  S
N730        C732   1.355       .  A
Mn731      Cl755   2.454       .  S
C732       C1406   1.471       .  S
C733        C805   1.520       .  S
N734        N735   1.308       .  A
N734        N740   1.318       .  A
N734       Mn742   2.158       .  S
N735        C743   1.335       .  A
N736        N738   1.322       .  A
N736        N737   1.313       .  A
N736       Mn754   2.271       .  S
N737        C744   1.359       .  A
N738        N739   1.333       .  A
N738       Mn742   2.202       .  S
N739        C744   1.357       .  A
N740        N741   1.339       .  A
N740       Mn754   2.289       .  S
N741        C743   1.375       .  A
Mn742      Cl755   2.595       .  S
C743       C1386   1.500       .  S
C744        C897   1.524       .  S
N745        N746   1.336       .  A
N745        N751   1.323       .  A
N745       Mn753   2.225       .  S
N746        C756   1.362       .  A
N747        N748   1.345       .  A
N747        N749   1.313       .  A
N747       Mn754   2.289       .  S
N748        C757   1.379       .  A
N749        N750   1.301       .  A
N749       Mn753   2.137       .  S
N750        C757   1.333       .  A
N751        N752   1.319       .  A
N751       Mn754   2.299       .  S
N752        C756   1.364       .  A
Mn753      Cl755   2.586       .  S
Mn754      Cl755   2.504       .  S
C756        C900   1.543       .  S
C757       C1396   1.509       .  S
C758        C780   1.511   1_655  S
C758        C759   1.365       .  D
C759        C827   1.486       .  S
C759        C860   1.501   1_655  S
N760        N761   1.327       .  A
N760        N766   1.311       .  A
N760       Mn789   2.168       .  S
N761        C768   1.357       .  A
N762        N764   1.314       .  A
N762        N763   1.321       .  A
N762       Mn778   2.210       .  S
N763        C769   1.354       .  A
N764        N765   1.320       .  A
N764       Mn789   2.170       .  S
N765        C769   1.345       .  A
N766        N767   1.302       .  A
N766       Mn778   2.179       .  S
N767        C768   1.347       .  A
C768        C805   1.499   1_455  S
C769       C1376   1.470       .  S
N770        N776   1.309       .  A
N770        N771   1.321       .  A
N770       Mn800   2.172       .  S
N771        C779   1.349       .  A
N772        N773   1.307       .  A
N772        N774   1.314       .  A
N772       Mn778   2.208       .  S
N773        C780   1.352       .  A
N774        N775   1.330       .  A
N774       Mn800   2.191       .  S
N775        C780   1.359       .  A
N776        N777   1.313       .  A
N776       Mn778   2.166       .  S
N777        C779   1.350       .  A
Mn778      Cl802   2.468       .  S
C779       C1366   1.466       .  S
N781        N782   1.306       .  A
N781        N787   1.313       .  A
N781       Mn789   2.106       .  S
N782        C790   1.330       .  A
N783        N785   1.314       .  A
N783        N784   1.305       .  A
N783       Mn801   2.167       .  S
N784        C791   1.334       .  A
N785        N786   1.322       .  A
N785       Mn789   2.194       .  S
N786        C791   1.358       .  A
N787        N788   1.338       .  A
N787       Mn801   2.297       .  S
N788        C790   1.374       .  A
Mn789      Cl802   2.570       .  S
C790       C1346   1.483       .  S
C791        C900   1.481       .  S
N792        N793   1.327       .  A
N792        N798   1.313       .  A
N792       Mn800   2.200       .  S
N793        C803   1.360       .  A
N794        N795   1.332       .  A
N794        N796   1.315       .  A
N794       Mn801   2.265       .  S
N795        C804   1.369       .  A
N796        N797   1.302       .  A
N796       Mn800   2.108       .  S
N797        C804   1.329       .  A
N798        N799   1.308       .  A
N798       Mn801   2.185       .  S
N799        C803   1.339       .  A
Mn800      Cl802   2.567       .  S
Mn801      Cl802   2.464       .  S
C803        C897   1.494       .  S
C804       C1356   1.462       .  S
C806        C815   1.476       .  S
C806        C872   1.503   1_655  S
N807        N808   1.312       .  A
N807        N813   1.314       .  A
N807       Mn836   2.152       .  S
N808        C815   1.340       .  A
N809        N811   1.319       .  A
N809        N810   1.326       .  A
N809       Mn825   2.243       .  S
N810        C816   1.357       .  A
N811        N812   1.317       .  A
N811       Mn836   2.186       .  S
N812        C816   1.348       .  A
N813        N814   1.330       .  A
N813       Mn825   2.228       .  S
N814        C815   1.361       .  A
C816        C899   1.474       .  S
N817        N823   1.318       .  A
N817        N818   1.322       .  A
N817       Mn847   2.210       .  S
N818        C826   1.353       .  A
N819        N820   1.331       .  A
N819        N821   1.314       .  A
N819       Mn825   2.235       .  S
N820        C827   1.362       .  A
N821        N822   1.316       .  A
N821       Mn847   2.170       .  S
N822        C827   1.344       .  A
N823        N824   1.327       .  A
N823       Mn825   2.242       .  S
N824        C826   1.357       .  A
Mn825      Cl849   2.531       .  S
C826        C898   1.488       .  S
N828        N829   1.334       .  A
N828        N834   1.312       .  A
N828       Mn836   2.216       .  S
N829        C837   1.365       .  A
N830        N832   1.314       .  A
N830        N831   1.329       .  A
N830       Mn848   2.234       .  S
N831        C838   1.363       .  A
N832        N833   1.307       .  A
N832       Mn836   2.129       .  S
N833        C838   1.333       .  A
N834        N835   1.301       .  A
N834       Mn848   2.140       .  S
N835        C837   1.334       .  A
Mn836      Cl849   2.541       .  S
C837       C1319   1.483       .  S
C838       C1326   1.463   1_556  S
N839        N840   1.308       .  A
N839        N845   1.316       .  A
N839       Mn847   2.134       .  S
N840        C850   1.334       .  A
N841        N842   1.300       .  A
N841        N843   1.314       .  A
N841       Mn848   2.137       .  S
N842        C851   1.326       .  A
N843        N844   1.332       .  A
N843       Mn847   2.222       .  S
N844        C851   1.365       .  A
N845        N846   1.330       .  A
N845       Mn848   2.234       .  S
N846        C850   1.362       .  A
Mn847      Cl849   2.540       .  S
Mn848      Cl849   2.489       .  S
C850       C1339   1.465       .  S
C851       C1306   1.476       .  S
N852        N853   1.325       .  A
N852        N858   1.321       .  A
N852       Mn881   2.248       .  S
N853        C860   1.358       .  A
N854        N856   1.317       .  A
N854        N855   1.326       .  A
N854       Mn870   2.222       .  S
N855        C861   1.355       .  A
N856        N857   1.323       .  A
N856       Mn881   2.217       .  S
N857        C861   1.355       .  A
N858        N859   1.328       .  A
N858       Mn870   2.237       .  S
N859        C860   1.356       .  A
C861        C898   1.493       .  S
N862        N868   1.319       .  A
N862        N863   1.326       .  A
N862       Mn892   2.240       .  S
N863        C871   1.359       .  A
N864        N865   1.330       .  A
N864        N866   1.319       .  A
N864       Mn870   2.230       .  S
N865        C872   1.357       .  A
N866        N867   1.324       .  A
N866       Mn892   2.245       .  S
N867        C872   1.356       .  A
N868        N869   1.328       .  A
N868       Mn870   2.238       .  S
N869        C871   1.357       .  A
Mn870      Cl894   2.523       .  S
C871        C899   1.510       .  S
N873        N874   1.334       .  A
N873        N879   1.309       .  A
N873       Mn881   2.232       .  S
N874        C882   1.369       .  A
N875        N877   1.320       .  A
N875        N876   1.323       .  A
N875       Mn893   2.167       .  S
N876        C883   1.342       .  A
N877        N878   1.319       .  A
N877       Mn881   2.220       .  S
N878        C883   1.352       .  A
N879        N880   1.300       .  A
N879       Mn893   2.128       .  S
N880        C882   1.335       .  A
Mn881      Cl894   2.572       .  S
C882       C1279   1.489       .  S
C883       C1286   1.482       .  S
N884        N885   1.313       .  A
N884        N890   1.322       .  A
N884       Mn892   2.221       .  S
N885        C895   1.350       .  A
N886        N887   1.303       .  A
N886        N888   1.310       .  A
N886       Mn893   2.122       .  S
N887        C896   1.333       .  A
N888        N889   1.337       .  A
N888       Mn892   2.243       .  S
N889        C896   1.370       .  A
N890        N891   1.324       .  A
N890       Mn893   2.157       .  S
N891        C895   1.342       .  A
Mn892      Cl894   2.564       .  S
Mn893      Cl894   2.475       .  S
C895       C1299   1.476   1_556  S
C896       C1266   1.479       .  S
C897        C898   1.366       .  D
C901       C1349   1.499       .  S
C901       C1399   1.509       .  S
C901        C902   1.385       .  D
C902       C1359   1.499       .  S
C902       C1389   1.529       .  S
C903       C1289   1.512       .  S
C903       C1336   1.505   1_455  S
C903        C904   1.365       .  D
C904       C1296   1.502       .  S
C904       C1329   1.491   1_455  S
C905        C906   1.368       .  D
C906       C1246   1.490       .  S
C906       C1259   1.498       .  S
C907       C1276   1.492       .  S
C907       C1309   1.487       .  S
C907        C908   1.366       .  D
C908       C1226   1.492       .  S
C908       C1236   1.500       .  S
N909        N910   1.305       .  A
N909        N915   1.313       .  A
N909       Mn938   2.134       .  S
N910        C917   1.335       .  A
N911        N913   1.317       .  A
N911        N912   1.308       .  A
N911       Mn927   2.162       .  S
N912        C918   1.338       .  A
N913        N914   1.326       .  A
N913       Mn938   2.195       .  S
N914        C918   1.356       .  A
N915        N916   1.333       .  A
N915       Mn927   2.238       .  S
N916        C917   1.366       .  A
C917       C1249   1.467       .  S
C918       C1216   1.460       .  S
N919        N925   1.317       .  A
N919        N920   1.338       .  A
N919       Mn949   2.286       .  S
N920        C928   1.370       .  A
N921        N922   1.321       .  A
N921        N923   1.319       .  A
N921       Mn927   2.198       .  S
N922        C929   1.351       .  A
N923        N924   1.334       .  A
N923       Mn949   2.287       .  S
N924        C929   1.365       .  A
N925        N926   1.319       .  A
N925       Mn927   2.182       .  S
N926        C928   1.344       .  A
Mn927      Cl951   2.541       .  S
C928       C1095   1.514   1_455  S
C929       C1002   1.510       .  S
N930        N931   1.325       .  A
N930        N936   1.317       .  A
N930       Mn938   2.200       .  S
N931        C939   1.355       .  A
N932        N934   1.316       .  A
N932        N933   1.334       .  A
N932       Mn950   2.250       .  S
N933        C940   1.369       .  A
N934        N935   1.302       .  A
N934       Mn938   2.125       .  S
N935        C940   1.331       .  A
N936        N937   1.307       .  A
N936       Mn950   2.146       .  S
N937        C939   1.335       .  A
Mn938      Cl951   2.523       .  S
C939       C1206   1.450       .  S
C940       C1229   1.475       .  S
N941        N942   1.331       .  A
N941        N947   1.319       .  A
N941       Mn949   2.272       .  S
N942        C952   1.362       .  A
N943        N944   1.321       .  A
N943        N945   1.318       .  A
N943       Mn950   2.196       .  S
N944        C953   1.345       .  A
N945        N946   1.338       .  A
N945       Mn949   2.295       .  S
N946        C953   1.371       .  A
N947        N948   1.324       .  A
N947       Mn950   2.215       .  S
N948        C952   1.355       .  A
Mn949      Cl951   2.541       .  S
Mn950      Cl951   2.549       .  S
C952        C999   1.510       .  S
C953       C1093   1.518   1_455  S
N954        N955   1.335       .  A
N954        N960   1.321       .  A
N954       Mn983   2.284       .  S
N955        C962   1.367       .  A
N956        N958   1.317       .  A
N956        N957   1.320       .  A
N956       Mn972   2.193       .  S
N957        C963   1.349       .  A
N958        N959   1.333       .  A
N958       Mn983   2.268       .  S
N959        C963   1.364       .  A
N960        N961   1.321       .  A
N960       Mn972   2.213       .  S
N961        C962   1.350       .  A
C962       C1002   1.511       .  S
C963       C1095   1.502       .  S
N964        N970   1.319       .  A
N964        N965   1.321       .  A
N964       Mn994   2.179       .  S
N965        C973   1.344       .  A
N966        N967   1.329       .  A
N966        N968   1.311       .  A
N966       Mn972   2.200       .  S
N967        C974   1.356       .  A
N968        N969   1.307       .  A
N968       Mn994   2.140       .  S
N969        C974   1.337       .  A
N970        N971   1.314       .  A
N970       Mn972   2.206       .  S
N971        C973   1.354       .  A
Mn972      Cl996   2.553       .  S
C973       C1189   1.471       .  S
C974       C1256   1.476       .  S
N975        N976   1.334       .  A
N975        N981   1.323       .  A
N975       Mn983   2.276       .  S
N976        C984   1.362       .  A
N977        N979   1.317       .  A
N977        N978   1.316       .  A
N977       Mn995   2.172       .  S
N978        C985   1.342       .  A
N979        N980   1.335       .  A
N979       Mn983   2.276       .  S
N980        C985   1.367       .  A
N981        N982   1.324       .  A
N981       Mn995   2.242       .  S
N982        C984   1.355       .  A
Mn983      Cl996   2.519       .  S
C984       C1093   1.517       .  S
C985        C999   1.498       .  S
N986        N987   1.307       .  A
N986        N992   1.312       .  A
N986       Mn994   2.154       .  S
N987        C997   1.340       .  A
N988        N989   1.319       .  A
N988        N990   1.317       .  A
N988       Mn995   2.191       .  S
N989        C998   1.350       .  A
N990        N991   1.325       .  A
N990       Mn994   2.187       .  S
N991        C998   1.344       .  A
N992        N993   1.326       .  A
N992       Mn995   2.216       .  S
N993        C997   1.357       .  A
Mn994      Cl996   2.467       .  S
Mn995      Cl996   2.558       .  S
C997       C1239   1.479       .  S
C998       C1196   1.482       .  S
C999       C1000   1.384       .  D
C1000      C1011   1.520       .  S
C1000      C1068   1.508       .  S
C1001      C1023   1.508       .  S
C1001      C1056   1.510       .  S
N1003      N1004   1.324       .  A
N1003      N1009   1.320       .  A
N1003     Mn1032   2.223       .  S
N1004      C1011   1.354       .  A
N1005      N1007   1.317       .  A
N1005      N1006   1.334       .  A
N1005     Mn1021   2.271       .  S
N1006      C1012   1.366       .  A
N1007      N1008   1.320       .  A
N1007     Mn1032   2.192       .  S
N1008      C1012   1.347       .  A
N1009      N1010   1.335       .  A
N1009     Mn1021   2.288       .  S
N1010      C1011   1.366       .  A
C1012      C1094   1.505       .  S
N1013      N1019   1.322       .  A
N1013      N1014   1.324       .  A
N1013     Mn1043   2.225       .  S
N1014      C1022   1.352       .  A
N1015      N1016   1.332       .  A
N1015      N1017   1.319       .  A
N1015     Mn1021   2.250       .  S
N1016      C1023   1.360       .  A
N1017      N1018   1.322       .  A
N1017     Mn1043   2.231       .  S
N1018      C1023   1.353       .  A
N1019      N1020   1.334       .  A
N1019     Mn1021   2.288       .  S
N1020      C1022   1.366       .  A
Mn1021    Cl1045   2.537       .  S
C1022      C1096   1.515       .  S
N1024      N1025   1.324       .  A
N1024      N1030   1.312       .  A
N1024     Mn1032   2.206       .  S
N1025      C1033   1.358       .  A
N1026      N1028   1.318       .  A
N1026      N1027   1.320       .  A
N1026     Mn1044   2.170       .  S
N1027      C1034   1.341       .  A
N1028      N1029   1.319       .  A
N1028     Mn1032   2.200       .  S
N1029      C1034   1.352       .  A
N1030      N1031   1.306       .  A
N1030     Mn1044   2.144       .  S
N1031      C1033   1.337       .  A
Mn1032    Cl1045   2.566       .  S
C1033      C1156   1.473       .  S
C1034      C1166   1.474       .  S
N1035      N1036   1.315       .  A
N1035      N1041   1.320       .  A
N1035     Mn1043   2.220       .  S
N1036      C1046   1.354       .  A
N1037      N1038   1.309       .  A
N1037      N1039   1.313       .  A
N1037     Mn1044   2.132       .  S
N1038      C1047   1.333       .  A
N1039      N1040   1.331       .  A
N1039     Mn1043   2.237       .  S
N1040      C1047   1.364       .  A
N1041      N1042   1.324       .  A
N1041     Mn1044   2.173       .  S
N1042      C1046   1.344       .  A
Mn1043    Cl1045   2.559       .  S
Mn1044    Cl1045   2.464       .  S
C1046      C1176   1.479   1_556  S
C1047      C1146   1.487       .  S
N1048      N1049   1.317       .  A
N1048      N1054   1.315       .  A
N1048     Mn1077   2.164       .  S
N1049      C1056   1.341       .  A
N1050      N1052   1.318       .  A
N1050      N1051   1.334       .  A
N1050     Mn1066   2.289       .  S
N1051      C1057   1.367       .  A
N1052      N1053   1.318       .  A
N1052     Mn1077   2.178       .  S
N1053      C1057   1.348       .  A
N1054      N1055   1.338       .  A
N1054     Mn1066   2.290       .  S
N1055      C1056   1.372       .  A
C1057      C1096   1.504   1_455  S
N1058      N1064   1.317       .  A
N1058      N1059   1.321       .  A
N1058     Mn1088   2.192       .  S
N1059      C1067   1.350       .  A
N1060      N1061   1.337       .  A
N1060      N1062   1.318       .  A
N1060     Mn1066   2.284       .  S
N1061      C1068   1.369       .  A
N1062      N1063   1.318       .  A
N1062     Mn1088   2.189       .  S
N1063      C1068   1.344       .  A
N1064      N1065   1.333       .  A
N1064     Mn1066   2.279       .  S
N1065      C1067   1.365       .  A
Mn1066    Cl1090   2.540       .  S
C1067      C1094   1.505   1_455  S
N1069      N1070   1.329       .  A
N1069      N1075   1.311       .  A
N1069     Mn1077   2.202       .  S
N1070      C1078   1.362       .  A
N1071      N1073   1.318       .  A
N1071      N1072   1.327       .  A
N1071     Mn1089   2.219       .  S
N1072      C1079   1.360       .  A
N1073      N1074   1.307       .  A
N1073     Mn1077   2.147       .  S
N1074      C1079   1.333       .  A
N1075      N1076   1.301       .  A
N1075     Mn1089   2.127       .  S
N1076      C1078   1.336       .  A
Mn1077    Cl1090   2.536       .  S
C1078      C1116   1.465       .  S
C1079      C1129   1.458   1_556  S
N1080      N1081   1.309       .  A
N1080      N1086   1.317       .  A
N1080     Mn1088   2.154       .  S
N1081      C1091   1.336       .  A
N1082      N1083   1.308       .  A
N1082      N1084   1.315       .  A
N1082     Mn1089   2.149       .  S
N1083      C1092   1.337       .  A
N1084      N1085   1.328       .  A
N1084     Mn1088   2.227       .  S
N1085      C1092   1.363       .  A
N1086      N1087   1.327       .  A
N1086     Mn1089   2.209       .  S
N1087      C1091   1.358       .  A
Mn1088    Cl1090   2.533       .  S
Mn1089    Cl1090   2.533       .  S
C1091      C1136   1.459       .  S
C1092      C1106   1.462       .  S
C1093      C1094   1.385       .  D
C1097      C1199   1.515       .  S
C1097      C1209   1.484       .  S
C1097      C1098   1.367       .  D
C1098      C1186   1.489       .  S
C1098      C1219   1.503       .  S
C1099      C1126   1.487       .  S
C1099      C1179   1.505       .  S
C1099      C1100   1.369       .  D
C1100      C1139   1.506       .  S
C1100      C1169   1.513       .  S
C1101      C1379   1.518       .  S
C1101      C1409   1.527   1_445  S
C1101      C1102   1.370   1_455  D
C1103      C1369   1.474   1_655  S
C1103      C1416   1.501       .  S
C1103      C1104   1.352       .  D
C1104      C1109   1.495   1_655  S
C1104      C1159   1.487       .  S
C1105      C1106   1.396       .  A
C1105      C1110   1.398       .  A
C1105      H1112   1.084       .  S
C1106      C1107   1.407       .  A
C1107      C1108   1.393       .  A
C1107     Br1114   1.918       .  S
C1108      C1109   1.403       .  A
C1108      H1113   1.084   1_455  S
C1109      C1110   1.416       .  A
C1110     Br1111   1.903       .  S
C1115      C1116   1.403       .  A
C1115      C1120   1.376       .  A
C1115      H1122   1.081       .  S
C1116      C1117   1.405   1_556  A
C1118      H1123   1.079       .  S
C1119      C1120   1.405   1_554  A
C1120     Br1121   1.924       .  S
C1125      C1126   1.397       .  A
C1125      C1130   1.382       .  A
C1125      H1132   1.073       .  S
C1126      C1127   1.411       .  A
C1127     Br1134   1.918       .  S
C1128      C1129   1.403       .  A
C1128      H1133   1.083       .  S
C1130     Br1131   1.917       .  S
C1135      C1136   1.390       .  A
C1135      C1140   1.387       .  A
C1135      H1142   1.085       .  S
C1136      C1137   1.407       .  A
C1137      C1138   1.404       .  A
C1137     Br1144   1.917       .  S
C1138      C1139   1.408       .  A
C1138      H1143   1.082       .  S
C1139      C1140   1.418       .  A
C1140     Br1141   1.906       .  S
C1145      C1146   1.393   1_554  A
C1146      C1147   1.428       .  A
C1147      C1148   1.402       .  A
C1147     Br1154   1.924       .  S
C1148      C1149   1.396   1_556  A
C1148      H1153   1.083       .  S
C1150     Br1151   1.895       .  S
C1155      C1156   1.410       .  A
C1155      C1160   1.389       .  A
C1155      H1162   1.084       .  S
C1156      C1157   1.400       .  A
C1157      C1158   1.401       .  A
C1157     Br1164   1.918       .  S
C1158      C1159   1.409       .  A
C1158      H1163   1.073       .  S
C1159      C1160   1.402       .  A
C1160     Br1161   1.903       .  S
C1165      C1166   1.405       .  A
C1165      C1170   1.409       .  A
C1165      H1172   1.083       .  S
C1166      C1167   1.414       .  A
C1167      C1168   1.399       .  A
C1167     Br1174   1.905       .  S
C1168      C1169   1.389       .  A
C1168      H1173   1.073       .  S
C1169      C1170   1.416       .  A
C1170     Br1171   1.907       .  S
C1175      C1180   1.384       .  A
C1175      H1182   1.081       .  S
C1176      C1177   1.404       .  A
C1177     Br1184   1.913   1_554  S
C1178      C1179   1.420       .  A
C1178      H1183   1.082       .  S
C1179      C1180   1.425       .  A
C1180     Br1181   1.904       .  S
C1185      C1186   1.417       .  A
C1185      C1190   1.410       .  A
C1185      H1192   1.083       .  S
C1186      C1187   1.416       .  A
C1187      C1188   1.378       .  A
C1187     Br1194   1.905       .  S
C1195      C1196   1.408       .  A
C1195      C1200   1.413       .  A
C1195      H1202   1.083       .  S
C1196      C1197   1.414       .  A
C1197      C1198   1.401       .  A
C1197     Br1204   1.905       .  S
C1198      C1199   1.394       .  A
C1198      H1203   1.076       .  S
C1199      C1200   1.412       .  A
C1200     Br1201   1.903       .  S
C1205      C1206   1.405       .  A
C1205      C1210   1.404       .  A
C1205      H1212   1.083       .  S
C1206      C1207   1.398   1_455  A
C1207      C1208   1.380       .  A
C1207     Br1214   1.920       .  S
C1208      C1209   1.396       .  A
C1208      H1213   1.079       .  S
C1209      C1210   1.407   1_655  A
C1210     Br1211   1.915       .  S
C1215      C1216   1.391   1_655  A
C1215      H1222   1.085       .  S
C1217      C1218   1.404       .  A
C1218      C1219   1.411   1_455  A
C1218      H1223   1.083       .  S
C1219      C1220   1.418       .  A
C1220     Br1221   1.910       .  S
C1225      C1226   1.416       .  A
C1225      C1230   1.405       .  A
C1225      H1232   1.078       .  S
C1226      C1227   1.399       .  A
C1227      C1228   1.385       .  A
C1227     Br1234   1.916       .  S
C1228      C1229   1.407       .  A
C1228      H1233   1.079       .  S
C1229      C1230   1.403       .  A
C1230     Br1231   1.917       .  S
C1235      C1236   1.416       .  A
C1235      C1240   1.405       .  A
C1235      H1242   1.082       .  S
C1236      C1237   1.406       .  A
C1237      C1238   1.386       .  A
C1237     Br1244   1.910       .  S
C1238      C1239   1.408       .  A
C1238      H1243   1.084       .  S
C1239      C1240   1.402       .  A
C1240     Br1241   1.917       .  S
C1245      C1246   1.404       .  A
C1245      C1250   1.388       .  A
C1245      H1252   1.082       .  S
C1246      C1247   1.415       .  A
C1247      C1248   1.410       .  A
C1248      C1249   1.405       .  A
C1248      H1253   1.083       .  S
C1249      C1250   1.404       .  A
C1250     Br1251   1.922       .  S
C1255      C1256   1.409       .  A
C1255      C1260   1.392       .  A
C1255      H1262   1.084       .  S
C1256      C1257   1.398       .  A
C1257      C1258   1.401       .  A
C1257     Br1264   1.915       .  S
C1258      C1259   1.418       .  A
C1258      H1263   1.082       .  S
C1259      C1260   1.409       .  A
C1260     Br1261   1.917       .  S
C1265      C1266   1.406   1_554  A
C1266      C1267   1.411       .  A
C1267      C1268   1.387       .  A
C1267     Br1274   1.925       .  S
C1268      C1269   1.399       .  A
C1268      H1273   1.082       .  S
C1270     Br1271   1.912       .  S
C1275      C1276   1.412       .  A
C1275      C1280   1.408       .  A
C1275      H1282   1.077       .  S
C1276      C1277   1.407       .  A
C1277      C1278   1.381       .  A
C1277     Br1284   1.924       .  S
C1278      C1279   1.410       .  A
C1278      H1283   1.080       .  S
C1279      C1280   1.408       .  A
C1280     Br1281   1.917       .  S
C1285      C1286   1.410       .  A
C1285      C1290   1.415       .  A
C1285      H1292   1.083       .  S
C1286      C1287   1.414       .  A
C1287      C1288   1.398       .  A
C1287     Br1294   1.897       .  S
C1288      C1289   1.387       .  A
C1288      H1293   1.074       .  S
C1289      C1290   1.410       .  A
C1290     Br1291   1.907   1_455  S
C1295      C1296   1.418       .  A
C1295      C1300   1.413       .  A
C1295      H1302   1.082       .  S
C1296      C1297   1.424       .  A
C1297      C1298   1.385       .  A
C1297     Br1304   1.908       .  S
C1305      C1306   1.397       .  A
C1305      C1310   1.399       .  A
C1305      H1312   1.083       .  S
C1306      C1307   1.429       .  A
C1307      C1308   1.385       .  A
C1307     Br1314   1.928       .  S
C1308      C1309   1.390       .  A
C1308      H1313   1.083       .  S
C1309      C1310   1.418       .  A
C1310     Br1311   1.920       .  S
C1315      H1322   1.081       .  S
C1316      C1317   1.411   1_554  A
C1317      C1318   1.385       .  A
C1317     Br1324   1.923       .  S
C1318      C1319   1.410       .  A
C1318      H1323   1.083       .  S
C1319      C1320   1.400   1_556  A
C1325      C1330   1.403       .  A
C1325      H1332   1.083       .  S
C1326      C1327   1.408       .  A
C1327     Br1334   1.922       .  S
C1328      C1329   1.399   1_455  A
C1328      H1333   1.075       .  S
C1329      C1330   1.412       .  A
C1330     Br1331   1.918       .  S
C1335      C1336   1.409       .  A
C1335      C1340   1.405       .  A
C1335      H1342   1.081       .  S
C1336      C1337   1.416       .  A
C1337      C1338   1.389       .  A
C1337     Br1344   1.909   1_655  S
C1338      C1339   1.394       .  A
C1338      H1343   1.085       .  S
C1339      C1340   1.407       .  A
C1340     Br1341   1.914       .  S
C1345      C1350   1.400       .  A
C1345      H1352   1.084       .  S
C1346      C1347   1.407       .  A
C1347     Br1354   1.899       .  S
C1348      C1349   1.405       .  A
C1348      H1353   1.081       .  S
C1349      C1350   1.410       .  A
C1350     Br1351   1.919       .  S
C1355      C1356   1.396       .  A
C1355      C1360   1.400       .  A
C1355      H1362   1.084       .  S
C1356      C1357   1.412       .  A
C1357      C1358   1.394       .  A
C1357     Br1364   1.922       .  S
C1358      C1359   1.401       .  A
C1358      H1363   1.082       .  S
C1359      C1360   1.416       .  A
C1360     Br1361   1.907       .  S
C1365      C1366   1.398       .  A
C1365      C1370   1.381   1_565  A
C1365      H1372   1.080       .  S
C1366      C1367   1.411       .  A
C1367      C1368   1.400       .  A
C1367     Br1374   1.919       .  S
C1368      C1369   1.401   1_565  A
C1368      H1373   1.081   1_565  S
C1369      C1370   1.404       .  A
C1370     Br1371   1.915   1_455  S
C1375      C1376   1.398       .  A
C1375      C1380   1.395   1_565  A
C1375      H1382   1.080       .  S
C1376      C1377   1.410       .  A
C1377      C1378   1.404       .  A
C1377     Br1384   1.918       .  S
C1378      C1379   1.408   1_565  A
C1378      H1383   1.077   1_565  S
C1379      C1380   1.400       .  A
C1380     Br1381   1.905       .  S
C1385      C1386   1.417       .  A
C1385      C1390   1.406       .  A
C1385      H1392   1.083       .  S
C1386      C1387   1.406       .  A
C1387      C1388   1.421       .  A
C1387     Br1394   1.916       .  S
C1388      C1389   1.427       .  A
C1388      H1393   1.082       .  S
C1389      C1390   1.398       .  A
C1390     Br1391   1.910       .  S
C1395      C1400   1.396       .  A
C1395      H1402   1.084       .  S
C1396      C1397   1.404       .  A
C1397     Br1404   1.912       .  S
C1398      C1399   1.427       .  A
C1398      H1403   1.080       .  S
C1399      C1400   1.417       .  A
C1400     Br1401   1.919       .  S
C1405      C1406   1.396       .  A
C1405      C1410   1.405       .  A
C1405      H1412   1.075       .  S
C1406      C1407   1.391       .  A
C1407      C1408   1.396       .  A
C1407     Br1414   1.919       .  S
C1408      C1409   1.418       .  A
C1408      H1413   1.076       .  S
C1409      C1410   1.424       .  A
C1410     Br1411   1.913   1_565  S
C1415      C1416   1.405   1_565  A
C1415      C1420   1.406       .  A
C1415      H1422   1.082   1_565  S
C1416      C1417   1.415   1_545  A
C1417      C1418   1.400       .  A
C1417     Br1424   1.919       .  S
C1418      C1419   1.398       .  A
C1418      H1423   1.083       .  S
C1419      C1420   1.407       .  A
C1420     Br1421   1.906       .  S
